test/data/matpower/activsg200.m
% Case saved by PowerWorld Simulator, version 23, build date June 10, 2024
% Case Information Header = 4 lines
% This is a synthetic power system model that does not represent the actual grid. It was developed as part of the US ARPA-E Grid 
% Data research project and contains no CEII.
% Reference: A.B. Birchfield, T. Xu, K.M. Gegner, K.S. Shetye, and T.J. Overbye, "Grid Structural Characteristics as Validation 
% Criteria for Synthetic Networks," to appear, IEEE Transactions on Power Systems, 2017.
function mpc = activsg200
mpc.version = '2';
mpc.baseMVA =  100.00;

%% bus data 
mpc.bus = [
1	1	0.00	0.00	0.00	0.00	1	0.9999672	-76.665065	115.00	2	1.100	0.900	19.91	0.00	0	0
2	1	10.82	3.08	0.00	0.00	1	0.9997914	-76.684578	115.00	2	1.100	0.900	19.91	0.00	0	0
3	1	0.00	0.00	0.00	0.00	1	1.0178408	-77.968725	115.00	4	1.100	0.900	19.91	0.00	0	0
4	1	2.68	0.76	0.00	0.00	1	1.0178008	-77.973386	115.00	4	1.100	0.900	19.91	0.00	0	0
5	1	0.00	0.00	0.00	0.00	1	1.0263027	-81.890849	115.00	6	1.100	0.900	19.91	0.00	0	0
6	1	10.82	3.08	0.00	0.00	1	1.0261292	-81.909331	115.00	6	1.100	0.900	19.91	0.00	0	0
7	1	0.00	0.00	0.00	0.00	1	0.9905186	-77.829977	115.00	2	1.100	0.900	19.91	0.00	0	0
8	1	34.77	9.91	0.00	0.00	1	0.9899761	-77.891104	115.00	2	1.100	0.900	19.91	0.00	0	0
9	1	0.00	0.00	0.00	0.00	1	0.9949453	-77.179969	115.00	2	1.100	0.900	19.91	0.00	0	0
10	1	62.53	17.82	0.00	0.00	1	0.9938632	-77.317638	115.00	2	1.100	0.900	19.91	0.00	0	0
11	1	0.00	0.00	0.00	0.00	1	1.0365068	-76.287754	115.00	4	1.100	0.900	19.91	0.00	0	0
12	1	0.48	0.14	0.00	0.00	1	1.0364996	-76.288620	115.00	4	1.100	0.900	19.91	0.00	0	0
13	1	4.00	1.14	0.00	0.00	1	1.0364432	-76.295064	115.00	4	1.100	0.900	19.91	0.00	0	0
14	1	0.00	0.00	0.00	0.00	1	1.0357704	-74.965097	230.00	4	1.100	0.900	19.91	0.00	0	0
15	1	0.00	0.00	0.00	30.00	1	1.0380549	-76.092270	115.00	4	1.100	0.900	19.91	0.00	0	0
16	1	70.86	20.19	0.00	0.00	1	1.0370518	-76.207015	115.00	4	1.100	0.900	19.91	0.00	0	0
17	1	0.00	0.00	0.00	0.00	1	1.0059473	-79.528970	115.00	4	1.100	0.900	19.91	0.00	0	0
18	1	1.13	0.32	0.00	0.00	1	1.0059290	-79.531391	115.00	4	1.100	0.900	19.91	0.00	0	0
19	1	1.22	0.35	0.00	0.00	1	1.0059304	-79.530991	115.00	4	1.100	0.900	19.91	0.00	0	0
20	1	1.79	0.51	0.00	0.00	1	1.0059192	-79.532179	115.00	4	1.100	0.900	19.91	0.00	0	0
21	1	7.29	2.08	0.00	0.00	1	1.0058209	-79.544508	115.00	4	1.100	0.900	19.91	0.00	0	0
22	1	0.00	0.00	0.00	0.00	1	1.0356027	-76.304804	115.00	4	1.100	0.900	19.91	0.00	0	0
23	1	2.23	0.64	0.00	0.00	1	1.0355696	-76.308438	115.00	4	1.100	0.900	19.91	0.00	0	0
24	1	3.79	1.08	0.00	0.00	1	1.0355454	-76.310624	115.00	4	1.100	0.900	19.91	0.00	0	0
25	1	0.00	0.00	0.00	0.00	1	1.0267304	-82.152003	115.00	6	1.100	0.900	19.91	0.00	0	0
26	1	1.84	0.52	0.00	0.00	1	1.0267038	-82.154903	115.00	6	1.100	0.900	19.91	0.00	0	0
27	1	0.00	0.00	0.00	0.00	1	1.0361565	-76.475584	115.00	4	1.100	0.900	19.91	0.00	0	0
28	1	3.69	1.05	0.00	0.00	1	1.0360953	-76.483068	115.00	4	1.100	0.900	19.91	0.00	0	0
29	1	0.00	0.00	0.00	0.00	1	0.9998333	-76.340166	115.00	2	1.100	0.900	19.91	0.00	0	0
30	1	86.56	24.67	0.00	0.00	1	0.9984549	-76.485903	115.00	2	1.100	0.900	19.91	0.00	0	0
31	1	0.00	0.00	0.00	0.00	1	0.9992104	-81.465196	115.00	7	1.100	0.900	19.91	0.00	0	0
32	1	0.70	0.20	0.00	0.00	1	0.9991979	-81.466679	115.00	7	1.100	0.900	19.91	0.00	0	0
33	1	8.79	2.50	0.00	0.00	1	0.9990727	-81.482786	115.00	7	1.100	0.900	19.91	0.00	0	0
34	1	0.00	0.00	0.00	0.00	1	1.0222378	-77.114319	115.00	4	1.100	0.900	19.91	0.00	0	0
35	1	32.87	9.37	0.00	0.00	1	1.0217153	-77.177603	115.00	4	1.100	0.900	19.91	0.00	0	0
36	1	0.00	0.00	0.00	0.00	1	1.0057018	-81.471342	115.00	7	1.100	0.900	19.91	0.00	0	0
37	1	4.87	1.39	0.00	0.00	1	1.0056291	-81.480095	115.00	7	1.100	0.900	19.91	0.00	0	0
38	1	40.67	11.59	0.00	0.00	1	1.0050248	-81.547883	115.00	7	1.100	0.900	19.91	0.00	0	0
39	1	11.72	3.34	0.00	0.00	1	1.0087677	-79.388240	115.00	4	1.100	0.900	19.91	0.00	0	0
40	1	3.24	0.92	0.00	0.00	1	1.0087231	-79.393634	115.00	4	1.100	0.900	19.91	0.00	0	0
41	1	60.65	17.28	0.00	0.00	1	1.0177238	-83.459501	115.00	5	1.100	0.900	19.91	0.00	0	0
42	1	16.81	4.79	0.00	0.00	1	1.0190712	-77.428479	115.00	4	1.100	0.900	19.91	0.00	0	0
43	1	3.06	0.87	0.00	0.00	1	0.9945745	-79.880764	115.00	2	1.100	0.900	19.91	0.00	0	0
44	1	6.57	1.87	0.00	0.00	1	1.0149874	-77.557406	115.00	4	1.100	0.900	19.91	0.00	0	0
45	1	0.00	0.00	0.00	0.00	1	1.0281976	-75.643190	230.00	7	1.100	0.900	19.91	0.00	0	0
46	1	8.65	2.46	0.00	0.00	1	1.0257185	-76.433243	115.00	7	1.100	0.900	19.91	0.00	0	0
47	1	2.44	0.70	0.00	0.00	1	1.0333640	-75.493084	115.00	4	1.100	0.900	19.91	0.00	0	0
48	1	2.48	0.71	0.00	0.00	1	1.0256165	-81.848980	115.00	6	1.100	0.900	19.91	0.00	0	0
49	2	0.00	0.00	0.00	0.00	1	1.0373725	-80.581859	13.80	6	1.100	0.900	19.91	0.00	0	0
50	2	0.00	0.00	0.00	0.00	1	1.0346645	-80.885132	13.80	6	1.100	0.900	19.91	0.00	0	0
51	2	0.00	0.00	0.00	0.00	1	1.0389105	-80.387126	13.80	6	1.100	0.900	19.91	0.00	0	0
52	2	0.00	0.00	0.00	0.00	1	1.0341892	-80.944282	13.80	6	1.100	0.900	19.91	0.00	0	0
53	2	0.00	0.00	0.00	0.00	1	1.0400000	-79.067157	13.80	6	1.100	0.900	19.91	0.00	0	0
54	1	4.22	1.20	0.00	0.00	1	1.0303383	-75.919921	115.00	4	1.100	0.900	19.91	0.00	0	0
55	1	0.00	0.00	0.00	0.00	1	1.0253871	-76.490449	230.00	7	1.100	0.900	19.91	0.00	0	0
56	1	1.78	0.51	0.00	0.00	1	1.0235173	-76.784130	115.00	7	1.100	0.900	19.91	0.00	0	0
57	1	4.46	1.27	0.00	0.00	1	1.0151011	-78.454300	115.00	4	1.100	0.900	19.91	0.00	0	0
58	1	5.77	1.65	0.00	0.00	1	1.0129769	-81.284049	115.00	7	1.100	0.900	19.91	0.00	0	0
59	1	6.93	1.98	0.00	0.00	1	0.9971963	-79.980635	115.00	2	1.100	0.900	19.91	0.00	0	0
60	1	5.56	1.58	0.00	0.00	1	1.0163691	-75.202706	115.00	2	1.100	0.900	19.91	0.00	0	0
61	1	28.05	7.99	0.00	0.00	1	1.0217580	-76.982116	115.00	7	1.100	0.900	19.91	0.00	0	0
62	1	33.89	9.66	0.00	0.00	1	1.0160780	-78.312530	115.00	4	1.100	0.900	19.91	0.00	0	0
63	1	12.64	3.60	0.00	0.00	1	1.0285887	-77.848109	115.00	4	1.100	0.900	19.91	0.00	0	0
64	1	0.00	0.00	0.00	0.00	1	1.0292073	-81.630963	115.00	6	1.100	0.900	19.91	0.00	0	0
65	2	0.00	0.00	0.00	0.00	1	1.0400000	-81.421029	13.80	6	1.100	0.900	19.91	0.00	0	0
66	1	0.00	0.00	0.00	0.00	1	1.0367287	-74.990486	115.00	4	1.100	0.900	19.91	0.00	0	0
67	2	0.00	0.00	0.00	0.00	1	1.0400000	-74.647605	13.80	4	1.100	0.900	19.91	0.00	0	0
68	2	0.00	0.00	0.00	0.00	1	1.0400000	-71.061255	13.80	4	1.100	0.900	19.91	0.00	0	0
69	2	0.00	0.00	0.00	0.00	1	1.0400000	-73.587160	13.80	4	1.100	0.900	19.91	0.00	0	0
70	2	0.00	0.00	0.00	0.00	1	1.0400000	-72.035349	13.80	4	1.100	0.900	19.91	0.00	0	0
71	2	0.00	0.00	0.00	0.00	1	1.0400000	-73.786651	13.80	4	1.100	0.900	19.91	0.00	0	0
72	2	0.00	0.00	0.00	0.00	1	1.0400000	-73.890181	13.80	4	1.100	0.900	19.91	0.00	0	0
73	2	0.00	0.00	0.00	0.00	1	1.0400000	-72.823156	13.80	4	1.100	0.900	19.91	0.00	0	0
74	1	25.54	7.28	0.00	0.00	1	1.0175286	-82.488090	115.00	6	1.100	0.900	19.91	0.00	0	0
75	1	5.27	1.50	0.00	0.00	1	1.0151003	-74.814488	115.00	2	1.100	0.900	19.91	0.00	0	0
76	2	0.00	0.00	0.00	0.00	1	1.0310322	-74.342186	13.80	2	1.100	0.900	19.91	0.00	0	0
77	2	0.00	0.00	0.00	0.00	1	1.0400000	-74.008306	13.80	2	1.100	0.900	19.91	0.00	0	0
78	2	0.00	0.00	0.00	0.00	1	1.0151003	-74.814488	13.80	2	1.100	0.900	19.91	0.00	0	0
79	2	0.00	0.00	0.00	0.00	1	1.0151003	-74.814488	13.80	2	1.100	0.900	19.91	0.00	0	0
80	1	2.33	0.67	0.00	0.00	1	1.0198754	-82.050503	115.00	5	1.100	0.900	19.91	0.00	0	0
81	1	0.00	0.00	0.00	0.00	1	1.0242433	-78.194935	230.00	6	1.100	0.900	19.91	0.00	0	0
82	1	10.35	2.95	0.00	0.00	1	1.0247193	-79.511335	115.00	6	1.100	0.900	19.91	0.00	0	0
83	1	4.28	1.22	0.00	0.00	1	1.0117546	-79.986739	115.00	7	1.100	0.900	19.91	0.00	0	0
84	1	5.50	1.57	0.00	0.00	1	0.9975588	-80.113752	115.00	2	1.100	0.900	19.91	0.00	0	0
85	1	7.65	2.18	0.00	0.00	1	1.0068682	-79.644228	115.00	4	1.100	0.900	19.91	0.00	0	0
86	1	12.08	3.44	0.00	0.00	1	0.9924555	-77.512525	115.00	2	1.100	0.900	19.91	0.00	0	0
87	1	0.00	0.00	0.00	0.00	1	1.0302429	-73.726541	230.00	3	1.100	0.900	19.91	0.00	0	0
88	1	74.28	21.17	0.00	0.00	1	1.0262990	-75.589533	115.00	3	1.100	0.900	19.91	0.00	0	0
89	1	85.75	24.44	0.00	0.00	1	1.0159517	-80.392136	115.00	7	1.100	0.900	19.91	0.00	0	0
90	2	0.00	0.00	0.00	0.00	1	1.0400000	-79.240408	13.80	7	1.100	0.900	19.91	0.00	0	0
91	2	0.00	0.00	0.00	0.00	1	1.0287666	-80.012582	13.80	7	1.100	0.900	19.91	0.00	0	0
92	2	0.00	0.00	0.00	0.00	1	1.0159517	-80.392136	13.80	7	1.100	0.900	19.91	0.00	0	0
93	1	4.85	1.38	0.00	0.00	1	1.0348780	-77.363966	115.00	4	1.100	0.900	19.91	0.00	0	0
94	2	0.00	0.00	0.00	0.00	1	1.0400000	-74.683441	13.80	4	1.100	0.900	19.91	0.00	0	0
95	1	4.09	1.17	0.00	30.00	1	1.0235173	-80.958743	115.00	7	1.100	0.900	19.91	0.00	0	0
96	1	4.03	1.15	0.00	0.00	1	1.0226275	-78.136745	115.00	7	1.100	0.900	19.91	0.00	0	0
97	1	10.74	3.06	0.00	0.00	1	1.0125113	-76.472492	115.00	2	1.100	0.900	19.91	0.00	0	0
98	1	0.00	0.00	0.00	0.00	1	1.0118293	-73.863821	230.00	2	1.100	0.900	19.91	0.00	0	0
99	1	17.82	5.08	0.00	0.00	1	1.0049199	-75.331432	115.00	2	1.100	0.900	19.91	0.00	0	0
100	1	59.15	16.86	0.00	80.00	1	1.0273420	-82.790236	115.00	5	1.100	0.900	19.91	0.00	0	0
101	1	0.76	0.22	0.00	0.00	1	0.9939410	-77.441789	115.00	2	1.100	0.900	19.91	0.00	0	0
102	1	0.00	0.00	0.00	0.00	1	1.0266745	-76.282370	230.00	7	1.100	0.900	19.91	0.00	0	0
103	1	0.00	0.00	0.00	0.00	1	1.0230915	-76.823801	115.00	7	1.100	0.900	19.91	0.00	0	0
104	2	0.00	0.00	0.00	0.00	1	1.0400000	-75.456948	13.80	7	1.100	0.900	19.91	0.00	0	0
105	2	0.00	0.00	0.00	0.00	1	1.0400000	-75.222995	13.80	7	1.100	0.900	19.91	0.00	0	0
106	1	2.81	0.80	0.00	0.00	1	1.0187595	-77.222610	115.00	7	1.100	0.900	19.91	0.00	0	0
107	1	71.72	20.44	0.00	0.00	1	0.9938533	-81.224752	115.00	7	1.100	0.900	19.91	0.00	0	0
108	1	13.80	3.93	0.00	0.00	1	1.0101643	-75.610124	115.00	2	1.100	0.900	19.91	0.00	0	0
109	1	8.16	2.33	0.00	0.00	1	1.0080371	-78.988911	115.00	4	1.100	0.900	19.91	0.00	0	0
110	1	15.91	4.53	0.00	0.00	1	0.9941152	-77.384655	115.00	2	1.100	0.900	19.91	0.00	0	0
111	1	13.95	3.97	0.00	0.00	1	1.0131089	-83.648587	115.00	5	1.100	0.900	19.91	0.00	0	0
112	1	0.00	0.00	0.00	0.00	1	1.0211051	-76.876589	230.00	7	1.100	0.900	19.91	0.00	0	0
113	1	0.00	0.00	0.00	0.00	1	1.0009174	-80.178363	115.00	7	1.100	0.900	19.91	0.00	0	0
114	2	0.00	0.00	0.00	0.00	1	1.0228661	-76.793203	13.80	7	1.100	0.900	19.91	0.00	0	0
115	2	0.00	0.00	0.00	0.00	1	1.0400000	-75.282317	13.80	7	1.100	0.900	19.91	0.00	0	0
116	1	0.00	0.00	0.00	0.00	1	1.0106693	-74.464144	230.00	2	1.100	0.900	19.91	0.00	0	0
117	1	49.93	14.23	0.00	0.00	1	0.9998074	-77.046616	115.00	2	1.100	0.900	19.91	0.00	0	0
118	1	5.77	1.64	0.00	0.00	1	1.0043039	-76.151428	115.00	2	1.100	0.900	19.91	0.00	0	0
119	1	25.72	7.33	0.00	0.00	1	0.9934682	-79.377784	115.00	2	1.100	0.900	19.91	0.00	0	0
120	1	2.85	0.81	0.00	0.00	1	1.0064443	-79.644068	115.00	4	1.100	0.900	19.91	0.00	0	0
121	1	0.00	0.00	0.00	0.00	1	1.0334692	-74.258214	230.00	7	1.100	0.900	19.91	0.00	0	0
122	1	21.06	6.00	0.00	0.00	1	1.0272784	-76.430227	115.00	7	1.100	0.900	19.91	0.00	0	0
123	1	0.00	0.00	0.00	0.00	1	1.0225117	-72.317850	230.00	2	1.100	0.900	19.91	0.00	0	0
124	1	0.00	0.00	0.00	0.00	1	1.0091112	-75.087264	115.00	2	1.100	0.900	19.91	0.00	0	0
125	2	0.00	0.00	0.00	0.00	1	1.0400000	-63.889928	13.80	2	1.100	0.900	19.91	0.00	0	0
126	2	0.00	0.00	0.00	0.00	1	1.0400000	-66.997525	13.80	2	1.100	0.900	19.91	0.00	0	0
127	2	0.00	0.00	0.00	0.00	1	1.0400000	-69.785912	13.80	2	1.100	0.900	19.91	0.00	0	0
128	1	0.00	0.00	0.00	0.00	1	1.0205806	-76.725482	230.00	7	1.100	0.900	19.91	0.00	0	0
129	1	105.40	30.04	0.00	0.00	1	0.9995689	-80.396131	115.00	7	1.100	0.900	19.91	0.00	0	0
130	1	6.00	1.71	0.00	0.00	1	1.0150977	-77.503119	115.00	7	1.100	0.900	19.91	0.00	0	0
131	1	44.32	12.63	0.00	0.00	1	0.9950994	-77.217045	115.00	2	1.100	0.900	19.91	0.00	0	0
132	1	39.49	11.26	0.00	0.00	1	0.9904199	-79.399848	115.00	2	1.100	0.900	19.91	0.00	0	0
133	1	0.00	0.00	0.00	0.00	1	1.0244980	-72.516771	230.00	2	1.100	0.900	19.91	0.00	0	0
134	1	0.00	0.00	0.00	0.00	1	1.0202996	-74.013626	115.00	2	1.100	0.900	19.91	0.00	0	0
135	2	0.00	0.00	0.00	0.00	1	1.0400000	-68.986884	13.80	2	1.100	0.900	19.91	0.00	0	0
136	2	0.00	0.00	0.00	0.00	1	1.0400000	-69.240747	13.80	2	1.100	0.900	19.91	0.00	0	0
137	1	1.84	0.52	0.00	0.00	1	1.0198380	-77.596026	115.00	4	1.100	0.900	19.91	0.00	0	0
138	1	2.85	0.81	0.00	0.00	1	1.0187208	-80.000141	115.00	6	1.100	0.900	19.91	0.00	0	0
139	1	10.02	2.86	0.00	0.00	1	1.0015775	-80.251886	115.00	2	1.100	0.900	19.91	0.00	0	0
140	1	12.03	3.43	0.00	0.00	1	1.0072370	-75.520065	115.00	2	1.100	0.900	19.91	0.00	0	0
141	1	2.08	0.59	0.00	0.00	1	0.9940746	-77.365290	115.00	2	1.100	0.900	19.91	0.00	0	0
142	1	54.59	15.56	0.00	0.00	1	0.9923647	-77.333300	115.00	2	1.100	0.900	19.91	0.00	0	0
143	1	42.36	12.07	0.00	0.00	1	1.0108295	-81.122051	115.00	5	1.100	0.900	19.91	0.00	0	0
144	1	13.26	3.78	0.00	0.00	1	1.0043836	-77.912309	115.00	2	1.100	0.900	19.91	0.00	0	0
145	1	26.41	7.53	0.00	0.00	1	1.0184237	-76.644697	115.00	3	1.100	0.900	19.91	0.00	0	0
146	1	0.00	0.00	0.00	0.00	1	1.0159393	-80.246247	115.00	7	1.100	0.900	19.91	0.00	0	0
147	2	0.00	0.00	0.00	0.00	1	1.0371995	-79.533529	13.80	7	1.100	0.900	19.91	0.00	0	0
148	1	46.91	13.37	0.00	0.00	1	0.9860652	-78.413580	115.00	2	1.100	0.900	19.91	0.00	0	0
149	1	0.00	0.00	0.00	0.00	1	1.0330072	-73.106754	230.00	3	1.100	0.900	19.91	0.00	0	0
150	1	0.00	0.00	0.00	0.00	1	1.0310413	-74.857903	115.00	3	1.100	0.900	19.91	0.00	0	0
151	2	0.00	0.00	0.00	0.00	1	1.0400000	-71.317718	13.80	3	1.100	0.900	19.91	0.00	0	0
152	2	0.00	0.00	0.00	0.00	1	1.0400000	-67.271847	13.80	3	1.100	0.900	19.91	0.00	0	0
153	2	0.00	0.00	0.00	0.00	1	1.0400000	-65.501774	13.80	3	1.100	0.900	19.91	0.00	0	0
154	2	0.00	0.00	0.00	0.00	1	1.0400000	-68.874233	13.80	3	1.100	0.900	19.91	0.00	0	0
155	2	0.00	0.00	0.00	0.00	1	1.0400000	-69.002541	13.80	3	1.100	0.900	19.91	0.00	0	0
156	1	0.00	0.00	0.00	0.00	1	1.0226403	-72.515352	230.00	2	1.100	0.900	19.91	0.00	0	0
157	1	21.62	6.16	0.00	0.00	1	1.0192087	-73.660964	115.00	2	1.100	0.900	19.91	0.00	0	0
158	1	14.19	4.04	0.00	0.00	1	1.0358473	-75.825475	115.00	4	1.100	0.900	19.91	0.00	0	0
159	1	2.20	0.63	0.00	0.00	1	1.0132140	-78.759191	115.00	4	1.100	0.900	19.91	0.00	0	0
160	1	0.00	0.00	0.00	0.00	1	1.0260409	-76.961419	115.00	4	1.100	0.900	19.91	0.00	0	0
161	2	0.00	0.00	0.00	0.00	1	1.0400000	-75.182060	13.80	4	1.100	0.900	19.91	0.00	0	0
162	1	2.12	0.60	0.00	0.00	1	1.0030330	-77.681782	115.00	2	1.100	0.900	19.91	0.00	0	0
163	1	72.46	20.65	0.00	0.00	1	1.0151798	-83.445181	115.00	5	1.100	0.900	19.91	0.00	0	0
164	2	0.00	0.00	0.00	0.00	1	1.0151798	-83.445181	13.80	5	1.100	0.900	19.91	0.00	0	0
165	2	0.00	0.00	0.00	0.00	1	1.0151798	-83.445181	13.80	5	1.100	0.900	19.91	0.00	0	0
166	2	0.00	0.00	0.00	0.00	1	1.0151798	-83.445181	13.80	5	1.100	0.900	19.91	0.00	0	0
167	2	0.00	0.00	0.00	0.00	1	1.0246231	-83.167534	13.80	5	1.100	0.900	19.91	0.00	0	0
168	2	0.00	0.00	0.00	0.00	1	1.0151798	-83.445181	13.80	5	1.100	0.900	19.91	0.00	0	0
169	2	0.00	0.00	0.00	0.00	1	1.0151798	-83.445181	13.80	5	1.100	0.900	19.91	0.00	0	0
170	2	0.00	0.00	0.00	0.00	1	1.0329314	-82.910259	13.80	5	1.100	0.900	19.91	0.00	0	0
171	1	10.81	3.08	0.00	0.00	1	1.0171641	-81.433527	115.00	6	1.100	0.900	19.91	0.00	0	0
172	1	8.51	2.42	0.00	0.00	1	1.0210361	-83.138607	115.00	5	1.100	0.900	19.91	0.00	0	0
173	1	13.78	3.93	0.00	0.00	1	1.0144848	-83.132962	115.00	5	1.100	0.900	19.91	0.00	0	0
174	1	4.38	1.25	0.00	0.00	1	1.0226085	-81.632083	115.00	5	1.100	0.900	19.91	0.00	0	0
175	1	11.56	3.30	0.00	0.00	1	1.0126588	-83.563938	115.00	5	1.100	0.900	19.91	0.00	0	0
176	1	28.62	8.16	0.00	0.00	1	1.0218867	-76.161880	115.00	3	1.100	0.900	19.91	0.00	0	0
177	1	15.40	4.39	0.00	0.00	1	1.0069250	-81.234233	115.00	7	1.100	0.900	19.91	0.00	0	0
178	1	0.00	0.00	0.00	0.00	1	1.0225012	-78.754972	230.00	5	1.100	0.900	19.91	0.00	0	0
179	1	37.35	10.64	0.00	0.00	1	1.0211999	-81.756181	115.00	5	1.100	0.900	19.91	0.00	0	0
180	1	12.25	3.49	0.00	0.00	1	1.0206475	-82.933542	115.00	5	1.100	0.900	19.91	0.00	0	0
181	1	75.96	21.65	0.00	0.00	1	1.0250808	-76.846585	115.00	4	1.100	0.900	19.91	0.00	0	0
182	2	0.00	0.00	0.00	0.00	1	1.0400000	-74.074578	13.80	4	1.100	0.900	19.91	0.00	0	0
183	2	0.00	0.00	0.00	0.00	1	1.0394929	-75.243063	13.80	4	1.100	0.900	19.91	0.00	0	0
184	1	16.92	4.82	0.00	0.00	1	1.0240134	-81.100266	115.00	5	1.100	0.900	19.91	0.00	0	0
185	1	16.24	4.63	0.00	0.00	1	1.0217067	-76.191567	115.00	3	1.100	0.900	19.91	0.00	0	0
186	1	3.08	0.88	0.00	0.00	1	1.0114711	-78.248025	115.00	2	1.100	0.900	19.91	0.00	0	0
187	1	0.00	0.00	0.00	0.00	1	1.0355114	-73.360698	230.00	7	1.100	0.900	19.91	0.00	0	0
188	1	0.00	0.00	0.00	0.00	1	1.0270087	-77.579848	115.00	7	1.100	0.900	19.91	0.00	0	0
189	3	0.00	0.00	0.00	0.00	1	1.0400000	-71.001565	13.80	7	1.100	0.900	19.91	0.00	0	0
190	1	22.86	6.51	0.00	0.00	1	1.0145369	-82.379691	115.00	6	1.100	0.900	19.91	0.00	0	0
191	1	11.43	3.26	0.00	0.00	1	1.0256159	-80.276079	115.00	5	1.100	0.900	19.91	0.00	0	0
192	1	71.97	20.51	0.00	0.00	1	0.9936674	-81.390692	115.00	7	1.100	0.900	19.91	0.00	0	0
193	1	32.21	9.18	0.00	0.00	1	0.9959275	-77.088062	115.00	2	1.100	0.900	19.91	0.00	0	0
194	1	56.57	16.12	0.00	50.00	1	1.0302091	-75.964298	115.00	3	1.100	0.900	19.91	0.00	0	0
195	1	0.00	0.00	0.00	0.00	1	1.0235091	-79.833447	115.00	6	1.100	0.900	19.91	0.00	0	0
196	2	0.00	0.00	0.00	0.00	1	1.0235091	-79.833447	13.80	6	1.100	0.900	19.91	0.00	0	0
197	2	0.00	0.00	0.00	0.00	1	1.0400000	-77.759668	13.80	6	1.100	0.900	19.91	0.00	0	0
198	1	7.87	2.24	0.00	0.00	1	1.0053562	-76.199589	115.00	2	1.100	0.900	19.91	0.00	0	0
199	1	5.79	1.65	0.00	0.00	1	1.0235421	-82.713601	115.00	6	1.100	0.900	19.91	0.00	0	0
200	1	14.79	4.22	0.00	0.00	1	1.0113717	-77.341914	115.00	4	1.100	0.900	19.91	0.00	0	0
];

%% generator data 
mpc.gen = [
49	4.53	2.11	2.11	-0.55	1.0400	5.44	1	4.53	1.36	0.00	0.00	0.00	0.00	0.00	0.00	0	0	0	0	4.5300	0	0	0	0
50	4.53	2.11	2.11	-0.55	1.0400	5.44	1	4.53	1.36	0.00	0.00	0.00	0.00	0.00	0.00	0	0	0	0	4.5300	0	0	0	0
51	4.53	2.11	2.11	-0.55	1.0400	5.44	1	4.53	1.36	0.00	0.00	0.00	0.00	0.00	0.00	0	0	0	0	4.5300	0	0	0	0
52	4.53	2.11	2.11	-0.55	1.0400	5.44	1	4.53	1.36	0.00	0.00	0.00	0.00	0.00	0.00	0	0	0	0	4.5300	0	0	0	0
53	9.07	2.48	4.23	-1.11	1.0400	10.88	1	9.07	2.72	0.00	0.00	0.00	0.00	0.00	0.00	0	0	0	0	9.0700	0	0	0	0
65	4.00	11.01	32.04	-21.66	1.0400	180.48	1	4.00	4.00	0.00	0.00	0.00	0.00	0.00	0.00	0	0	0	0	0.0000	0	0	0	0
67	4.70	1.68	2.19	-0.57	1.0400	5.64	1	4.70	1.41	0.00	0.00	0.00	0.00	0.00	0.00	0	0	0	0	4.7000	0	0	0	0
68	27.92	1.51	13.01	-3.41	1.0400	33.50	1	27.92	8.38	0.00	0.00	0.00	0.00	0.00	0.00	0	0	0	0	27.9200	0	0	0	0
69	27.92	2.63	13.01	-3.41	1.0400	33.50	1	27.92	8.38	0.00	0.00	0.00	0.00	0.00	0.00	0	0	0	0	27.9200	0	0	0	0
70	27.92	1.46	13.01	-3.41	1.0400	33.50	1	27.92	8.38	0.00	0.00	0.00	0.00	0.00	0.00	0	0	0	0	27.9200	0	0	0	0
71	27.92	3.26	13.01	-3.41	1.0400	33.50	1	27.92	8.38	0.00	0.00	0.00	0.00	0.00	0.00	0	0	0	0	27.9200	0	0	0	0
72	27.92	3.51	13.01	-3.41	1.0400	33.50	1	27.92	8.38	0.00	0.00	0.00	0.00	0.00	0.00	0	0	0	0	27.9200	0	0	0	0
73	27.92	1.54	13.01	-3.41	1.0400	33.50	1	27.92	8.38	0.00	0.00	0.00	0.00	0.00	0.00	0	0	0	0	27.9200	0	0	0	0
76	1.20	2.04	2.04	-0.44	1.0400	4.80	1	4.00	1.20	0.00	0.00	0.00	0.00	0.00	0.00	0	0	0	0	4.0000	0	0	0	0
77	0.72	1.16	1.22	-0.27	1.0400	2.88	1	2.40	0.72	0.00	0.00	0.00	0.00	0.00	0.00	0	0	0	0	2.4000	0	0	0	0
78	0.00	0.00	9.16	-2.00	1.0400	21.60	0	18.00	5.40	0.00	0.00	0.00	0.00	0.00	0.00	0	0	0	0	18.0000	0	0	0	0
79	0.00	0.00	9.16	-2.00	1.0400	21.60	0	18.00	5.40	0.00	0.00	0.00	0.00	0.00	0.00	0	0	0	0	18.0000	0	0	0	0
90	0.96	1.08	1.63	-0.36	1.0400	3.84	1	3.20	0.96	0.00	0.00	0.00	0.00	0.00	0.00	0	0	0	0	3.2000	0	0	0	0
91	1.50	2.55	2.55	-0.55	1.0400	6.00	1	5.00	1.50	0.00	0.00	0.00	0.00	0.00	0.00	0	0	0	0	5.0000	0	0	0	0
92	0.00	0.00	3.21	-0.70	1.0400	7.56	0	6.30	1.89	0.00	0.00	0.00	0.00	0.00	0.00	0	0	0	0	6.3000	0	0	0	0
94	18.00	1.63	8.39	-2.20	1.0400	21.60	1	18.00	5.40	0.00	0.00	0.00	0.00	0.00	0.00	0	0	0	0	18.0000	0	0	0	0
104	17.90	15.49	21.09	-14.26	1.0400	118.80	1	17.90	17.90	0.00	0.00	0.00	0.00	0.00	0.00	0	0	0	0	0.0000	0	0	0	0
105	33.60	23.08	42.17	-28.51	1.0400	237.60	1	33.60	33.60	0.00	0.00	0.00	0.00	0.00	0.00	0	0	0	0	0.0000	0	0	0	0
114	0.40	0.36	0.36	-0.24	1.0400	2.04	1	0.40	0.40	0.00	0.00	0.00	0.00	0.00	0.00	0	0	0	0	0.0000	0	0	0	0
115	47.70	30.99	31.95	-21.60	1.0400	180.00	1	47.70	47.70	0.00	0.00	0.00	0.00	0.00	0.00	0	0	0	0	0.0000	0	0	0	0
125	150.00	21.95	60.60	-15.87	1.0400	156.06	1	150.00	39.02	0.00	0.00	0.00	0.00	0.00	0.00	0	0	0	0	130.0500	0	0	0	0
126	150.00	31.11	60.60	-15.87	1.0400	156.06	1	150.00	39.02	0.00	0.00	0.00	0.00	0.00	0.00	0	0	0	0	130.0500	0	0	0	0
127	150.00	55.93	60.60	-15.87	1.0400	156.06	1	150.00	39.02	0.00	0.00	0.00	0.00	0.00	0.00	0	0	0	0	130.0500	0	0	0	0
135	196.42	51.62	208.02	-54.46	1.0400	535.68	1	446.40	133.92	0.00	0.00	0.00	0.00	0.00	0.00	0	0	0	0	446.4000	0	0	0	0
136	222.55	61.53	208.02	-54.46	1.0400	535.68	1	446.40	133.92	0.00	0.00	0.00	0.00	0.00	0.00	0	0	0	0	446.4000	0	0	0	0
147	13.40	21.41	21.41	-14.47	1.0400	120.60	1	13.40	13.40	0.00	0.00	0.00	0.00	0.00	0.00	0	0	0	0	0.0000	0	0	0	0
151	5.40	1.05	2.52	-0.66	1.0400	6.48	1	5.40	1.62	0.00	0.00	0.00	0.00	0.00	0.00	0	0	0	0	5.4000	0	0	0	0
152	77.22	7.70	35.99	-9.42	1.0400	92.67	1	77.22	23.17	0.00	0.00	0.00	0.00	0.00	0.00	0	0	0	0	77.2200	0	0	0	0
153	77.22	6.76	35.99	-9.42	1.0400	92.67	1	77.22	23.17	0.00	0.00	0.00	0.00	0.00	0.00	0	0	0	0	77.2200	0	0	0	0
154	77.22	8.04	35.99	-9.42	1.0400	92.67	1	77.22	23.17	0.00	0.00	0.00	0.00	0.00	0.00	0	0	0	0	77.2200	0	0	0	0
155	77.22	8.12	35.99	-9.42	1.0400	92.67	1	77.22	23.17	0.00	0.00	0.00	0.00	0.00	0.00	0	0	0	0	77.2200	0	0	0	0
161	41.58	18.00	70.55	-15.38	1.0400	166.32	1	138.60	41.58	0.00	0.00	0.00	0.00	0.00	0.00	0	0	0	0	138.6000	0	0	0	0
164	0.00	0.00	6.11	-1.33	1.0400	14.40	0	12.00	3.60	0.00	0.00	0.00	0.00	0.00	0.00	0	0	0	0	12.0000	0	0	0	0
165	0.00	0.00	13.23	-2.89	1.0400	31.20	0	26.00	7.80	0.00	0.00	0.00	0.00	0.00	0.00	0	0	0	0	26.0000	0	0	0	0
166	0.00	0.00	4.78	-1.04	1.0400	11.28	0	9.40	2.82	0.00	0.00	0.00	0.00	0.00	0.00	0	0	0	0	9.4000	0	0	0	0
167	2.82	4.78	4.78	-1.04	1.0400	11.28	1	9.40	2.82	0.00	0.00	0.00	0.00	0.00	0.00	0	0	0	0	9.4000	0	0	0	0
168	0.00	0.00	4.78	-1.04	1.0400	11.28	0	9.40	2.82	0.00	0.00	0.00	0.00	0.00	0.00	0	0	0	0	9.4000	0	0	0	0
169	0.00	0.00	4.78	-1.04	1.0400	11.28	0	9.40	2.82	0.00	0.00	0.00	0.00	0.00	0.00	0	0	0	0	9.4000	0	0	0	0
170	2.82	4.78	4.78	-1.04	1.0400	11.28	1	9.40	2.82	0.00	0.00	0.00	0.00	0.00	0.00	0	0	0	0	9.4000	0	0	0	0
182	17.50	4.98	8.16	-2.14	1.0400	21.00	1	17.50	5.25	0.00	0.00	0.00	0.00	0.00	0.00	0	0	0	0	17.5000	0	0	0	0
183	26.60	12.40	12.40	-3.25	1.0400	31.92	1	26.60	7.98	0.00	0.00	0.00	0.00	0.00	0.00	0	0	0	0	26.6000	0	0	0	0
189	569.14	49.56	209.45	-46.67	1.0400	682.98	1	569.15	170.75	0.00	0.00	0.00	0.00	0.00	0.00	0	0	0	0	569.1500	0	0	0	0
196	0.00	0.00	34.36	-7.49	1.0400	81.00	0	67.50	20.25	0.00	0.00	0.00	0.00	0.00	0.00	0	0	0	0	67.5000	0	0	0	0
197	20.25	9.02	34.36	-7.49	1.0400	81.00	1	67.50	20.25	0.00	0.00	0.00	0.00	0.00	0.00	0	0	0	0	67.5000	0	0	0	0
];

%% generator cost data
mpc.gencost = [
2	0	0	4	0.0000	0.002	19.000	236.12
2	0	0	4	0.0000	0.002	19.000	236.12
2	0	0	4	0.0000	0.002	19.000	236.12
2	0	0	4	0.0000	0.002	19.000	236.12
2	0	0	4	0.0000	0.002	19.000	236.24
2	0	0	4	0.0000	0.000	0.000	0.00
2	0	0	4	0.0000	0.002	19.000	236.13
2	0	0	4	0.0000	0.002	19.000	236.74
2	0	0	4	0.0000	0.002	19.000	236.74
2	0	0	4	0.0000	0.002	19.000	236.74
2	0	0	4	0.0000	0.002	19.000	236.74
2	0	0	4	0.0000	0.002	19.000	236.74
2	0	0	4	0.0000	0.002	19.000	236.74
2	0	0	4	0.0000	0.002	23.157	606.00
2	0	0	4	0.0000	0.002	23.146	603.60
2	0	0	4	0.0000	0.002	23.252	627.00
2	0	0	4	0.0000	0.002	23.252	627.00
2	0	0	4	0.0000	0.002	23.152	604.80
2	0	0	4	0.0000	0.002	23.164	607.50
2	0	0	4	0.0000	0.002	23.173	609.45
2	0	0	4	0.0000	0.002	19.000	236.48
2	0	0	4	0.0000	0.000	0.000	0.00
2	0	0	4	0.0000	0.000	0.000	0.00
2	0	0	4	0.0000	0.000	0.000	0.00
2	0	0	4	0.0000	0.000	0.000	0.00
2	0	0	4	0.0000	0.002	19.000	610.14
2	0	0	4	0.0000	0.002	19.000	610.14
2	0	0	4	0.0000	0.002	19.000	610.14
2	0	0	4	0.0000	0.002	19.000	1261.33
2	0	0	4	0.0000	0.002	19.000	1261.33
2	0	0	4	0.0000	0.000	0.000	0.00
2	0	0	4	0.0000	0.002	19.000	236.14
2	0	0	4	0.0000	0.002	19.000	253.01
2	0	0	4	0.0000	0.002	19.000	253.01
2	0	0	4	0.0000	0.002	19.000	253.01
2	0	0	4	0.0000	0.002	19.000	253.01
2	0	0	4	0.0000	0.002	24.070	807.90
2	0	0	4	0.0000	0.002	23.211	618.00
2	0	0	4	0.0000	0.002	23.306	639.00
2	0	0	4	0.0000	0.002	23.194	614.10
2	0	0	4	0.0000	0.002	23.194	614.10
2	0	0	4	0.0000	0.002	23.194	614.10
2	0	0	4	0.0000	0.002	23.194	614.10
2	0	0	4	0.0000	0.002	23.194	614.10
2	0	0	4	0.0000	0.002	19.000	236.47
2	0	0	4	0.0000	0.002	19.000	236.71
2	0	0	4	0.0000	0.000	6.710	1272.13
2	0	0	4	0.0000	0.002	23.588	701.25
2	0	0	4	0.0000	0.002	23.588	701.25
];

%% branch data
mpc.branch = [
2	1	0.000673	0.003339	0.00000	100.00	0.00	0.00	0.00000	0.000	1	0.00	0.00	-10.82	-3.08	10.82	3.09	0	0	0	0
1	119	0.018542	0.119758	0.02285	221.10	0.00	0.00	0.00000	0.000	1	0.00	0.00	39.30	-0.87	-39.02	0.45	0	0	0	0
124	1	0.005615	0.036268	0.00692	221.10	0.00	0.00	0.00000	0.000	1	0.00	0.00	78.82	13.94	-78.47	-12.35	0	0	0	0
193	1	0.004258	0.027501	0.00525	221.10	0.00	0.00	0.00000	0.000	1	0.00	0.00	-28.31	-10.41	28.34	10.14	0	0	0	0
4	3	0.000573	0.003303	0.00000	100.00	0.00	0.00	0.00000	0.000	1	0.00	0.00	-2.68	-0.76	2.68	0.77	0	0	0	0
57	3	0.008505	0.058098	0.00988	221.10	0.00	0.00	0.00000	0.000	1	0.00	0.00	-15.43	-2.97	15.45	2.09	0	0	0	0
3	137	0.005889	0.038035	0.00726	221.10	0.00	0.00	0.00000	0.000	1	0.00	0.00	-18.14	-2.85	18.16	2.22	0	0	0	0
6	5	0.000694	0.003337	0.00000	100.00	0.00	0.00	0.00000	0.000	1	0.00	0.00	-10.82	-3.08	10.82	3.09	0	0	0	0
48	5	0.006246	0.043513	0.00711	221.10	0.00	0.00	0.00000	0.000	1	0.00	0.00	1.50	-2.21	-1.50	1.46	0	0	0	0
5	64	0.007877	0.054875	0.00897	221.10	0.00	0.00	0.00000	0.000	1	0.00	0.00	-9.32	-4.55	9.32	3.65	0	0	0	0
8	7	0.000634	0.003189	0.00000	100.00	0.00	0.00	0.00000	0.000	1	0.00	0.00	-34.77	-9.91	34.78	9.95	0	0	0	0
7	86	0.003756	0.024259	0.00463	221.10	0.00	0.00	0.00000	0.000	1	0.00	0.00	-23.11	-4.49	23.13	4.18	0	0	0	0
7	101	0.003597	0.023232	0.00443	221.10	0.00	0.00	0.00000	0.000	1	0.00	0.00	-30.23	-10.03	30.27	9.83	0	0	0	0
7	148	0.008667	0.055980	0.01068	221.10	0.00	0.00	0.00000	0.000	1	0.00	0.00	18.56	4.57	-18.53	-5.40	0	0	0	0
10	9	0.000585	0.003967	0.00000	100.00	0.00	0.00	0.00000	0.000	1	0.00	0.00	-62.53	-17.82	62.55	17.99	0	0	0	0
9	124	0.008069	0.055123	0.00938	221.10	0.00	0.00	0.00000	0.000	1	0.00	0.00	-68.61	-14.78	69.01	16.57	0	0	0	0
131	9	0.004139	0.026732	0.00510	221.10	0.00	0.00	0.00000	0.000	1	0.00	0.00	-2.25	0.67	2.25	-1.17	0	0	0	0
9	141	0.004446	0.030970	0.00506	221.10	0.00	0.00	0.00000	0.000	1	0.00	0.00	10.52	1.05	-10.51	-1.52	0	0	0	0
9	193	0.003695	0.025244	0.00429	221.10	0.00	0.00	0.00000	0.000	1	0.00	0.00	-6.72	-3.10	6.72	2.68	0	0	0	0
12	11	0.000534	0.003533	0.00000	100.00	0.00	0.00	0.00000	0.000	1	0.00	0.00	-0.48	-0.14	0.48	0.14	0	0	0	0
13	11	0.000619	0.003606	0.00000	100.00	0.00	0.00	0.00000	0.000	1	0.00	0.00	-4.00	-1.14	4.00	1.14	0	0	0	0
11	15	0.010408	0.067220	0.01282	221.10	0.00	0.00	0.00000	0.000	1	0.00	0.00	-5.69	-2.19	5.70	0.83	0	0	0	0
11	93	0.018394	0.128141	0.02095	221.10	0.00	0.00	0.00000	0.000	1	0.00	0.00	15.61	-1.90	-15.57	-0.05	0	0	0	0
158	11	0.008519	0.058199	0.00990	221.10	0.00	0.00	0.00000	0.000	1	0.00	0.00	14.41	-3.75	-14.40	2.81	0	0	0	0
15	14	0.000637	0.027526	0.00000	300.00	0.00	0.00	1.00000	0.000	1	0.00	0.00	-76.58	11.14	76.62	-9.61	0	0	0	0
14	121	0.007013	0.050098	0.09134	402.36	0.00	0.00	0.00000	0.000	1	0.00	0.00	-25.18	3.55	25.22	-12.99	0	0	0	0
14	149	0.009133	0.065244	0.11895	402.36	0.00	0.00	0.00000	0.000	1	0.00	0.00	-51.44	6.07	51.68	-17.09	0	0	0	0
16	15	0.000553	0.003200	0.00000	100.00	0.00	0.00	0.00000	0.000	1	0.00	0.00	-70.86	-20.19	70.88	20.36	0	0	0	0
18	17	0.000503	0.003926	0.00000	100.00	0.00	0.00	0.00000	0.000	1	0.00	0.00	-1.13	-0.32	1.13	0.32	0	0	0	0
19	17	0.000514	0.003079	0.00000	100.00	0.00	0.00	0.00000	0.000	1	0.00	0.00	-1.22	-0.35	1.22	0.35	0	0	0	0
20	17	0.000623	0.003339	0.00000	100.00	0.00	0.00	0.00000	0.000	1	0.00	0.00	-1.79	-0.51	1.79	0.51	0	0	0	0
21	17	0.000620	0.003940	0.00000	100.00	0.00	0.00	0.00000	0.000	1	0.00	0.00	-7.29	-2.08	7.29	2.08	0	0	0	0
109	17	0.009789	0.068198	0.01115	221.10	0.00	0.00	0.00000	0.000	1	0.00	0.00	14.18	0.55	-14.16	-1.55	0	0	0	0
17	120	0.010316	0.070473	0.01199	221.10	0.00	0.00	0.00000	0.000	1	0.00	0.00	2.72	-1.71	-2.72	0.50	0	0	0	0
23	22	0.000616	0.003222	0.00000	100.00	0.00	0.00	0.00000	0.000	1	0.00	0.00	-2.23	-0.64	2.23	0.64	0	0	0	0
24	22	0.000687	0.003067	0.00000	100.00	0.00	0.00	0.00000	0.000	1	0.00	0.00	-3.79	-1.08	3.79	1.08	0	0	0	0
22	27	0.011379	0.073494	0.01402	221.10	0.00	0.00	0.00000	0.000	1	0.00	0.00	4.13	-2.17	-4.13	0.67	0	0	0	0
158	22	0.012701	0.086769	0.01476	221.10	0.00	0.00	0.00000	0.000	1	0.00	0.00	10.17	-1.95	-10.16	0.45	0	0	0	0
26	25	0.000610	0.003071	0.00000	100.00	0.00	0.00	0.00000	0.000	1	0.00	0.00	-1.84	-0.52	1.84	0.52	0	0	0	0
25	64	0.007643	0.053244	0.00870	221.10	0.00	0.00	0.00000	0.000	1	0.00	0.00	-18.34	-2.52	18.37	1.77	0	0	0	0
199	25	0.009909	0.064003	0.01221	221.10	0.00	0.00	0.00000	0.000	1	0.00	0.00	-16.48	-3.11	16.50	1.99	0	0	0	0
28	27	0.000587	0.003964	0.00000	100.00	0.00	0.00	0.00000	0.000	1	0.00	0.00	-3.69	-1.05	3.69	1.05	0	0	0	0
27	93	0.025172	0.175362	0.02867	221.10	0.00	0.00	0.00000	0.000	1	0.00	0.00	9.41	-2.06	-9.39	-0.87	0	0	0	0
27	158	0.020429	0.131945	0.02517	221.10	0.00	0.00	0.00000	0.000	1	0.00	0.00	-8.97	0.33	8.98	-2.93	0	0	0	0
30	29	0.000694	0.003131	0.00000	100.00	0.00	0.00	0.00000	0.000	1	0.00	0.00	-86.56	-24.67	86.62	24.92	0	0	0	0
124	29	0.005561	0.038742	0.00633	221.10	0.00	0.00	0.00000	0.000	1	0.00	0.00	59.28	15.96	-59.07	-15.16	0	0	0	0
29	140	0.007895	0.055004	0.00899	221.10	0.00	0.00	0.00000	0.000	1	0.00	0.00	-27.54	-9.77	27.61	9.33	0	0	0	0
32	31	0.000667	0.003884	0.00000	100.00	0.00	0.00	0.00000	0.000	1	0.00	0.00	-0.70	-0.20	0.70	0.20	0	0	0	0
33	31	0.000528	0.003639	0.00000	100.00	0.00	0.00	0.00000	0.000	1	0.00	0.00	-8.79	-2.50	8.79	2.51	0	0	0	0
177	31	0.008406	0.058560	0.00957	221.10	0.00	0.00	0.00000	0.000	1	0.00	0.00	8.65	11.55	-8.64	-12.39	0	0	0	0
192	31	0.008088	0.055250	0.00940	221.10	0.00	0.00	0.00000	0.000	1	0.00	0.00	0.86	-10.56	-0.85	9.68	0	0	0	0
35	34	0.000575	0.003674	0.00000	100.00	0.00	0.00	0.00000	0.000	1	0.00	0.00	-32.87	-9.37	32.87	9.41	0	0	0	0
34	54	0.006268	0.042819	0.00729	221.10	0.00	0.00	0.00000	0.000	1	0.00	0.00	-52.89	-11.44	53.07	11.87	0	0	0	0
34	137	0.006911	0.044639	0.00852	221.10	0.00	0.00	0.00000	0.000	1	0.00	0.00	20.02	2.03	-19.99	-2.75	0	0	0	0
37	36	0.000552	0.003328	0.00000	100.00	0.00	0.00	0.00000	0.000	1	0.00	0.00	-4.87	-1.39	4.87	1.39	0	0	0	0
38	36	0.000670	0.003511	0.00000	100.00	0.00	0.00	0.00000	0.000	1	0.00	0.00	-40.67	-11.59	40.68	11.65	0	0	0	0
58	36	0.010889	0.074390	0.01266	221.10	0.00	0.00	0.00000	0.000	1	0.00	0.00	5.80	8.42	-5.79	-9.62	0	0	0	0
83	36	0.009615	0.066986	0.01095	221.10	0.00	0.00	0.00000	0.000	1	0.00	0.00	39.92	3.36	-39.77	-3.42	0	0	0	0
40	39	0.000505	0.003103	0.00000	100.00	0.00	0.00	0.00000	0.000	1	0.00	0.00	-3.24	-0.92	3.24	0.92	0	0	0	0
39	85	0.008702	0.060625	0.00991	221.10	0.00	0.00	0.00000	0.000	1	0.00	0.00	7.78	1.56	-7.78	-2.52	0	0	0	0
159	39	0.007332	0.051080	0.00835	221.10	0.00	0.00	0.00000	0.000	1	0.00	0.00	22.78	5.24	-22.74	-5.82	0	0	0	0
41	100	0.004595	0.029676	0.00566	221.10	0.00	0.00	0.00000	0.000	1	0.00	0.00	-45.14	-26.05	45.26	26.23	0	0	0	0
41	163	0.003165	0.021623	0.00368	221.10	0.00	0.00	0.00000	0.000	1	0.00	0.00	0.55	11.70	-0.54	-12.05	0	0	0	0
41	180	0.009408	0.060766	0.01159	221.10	0.00	0.00	0.00000	0.000	1	0.00	0.00	-16.05	-2.94	16.08	1.89	0	0	0	0
44	42	0.012256	0.085383	0.01396	221.10	0.00	0.00	0.00000	0.000	1	0.00	0.00	-3.35	-5.09	3.36	3.67	0	0	0	0
181	42	0.008008	0.055790	0.00912	221.10	0.00	0.00	0.00000	0.000	1	0.00	0.00	20.20	7.76	-20.16	-8.46	0	0	0	0
43	84	0.007509	0.051295	0.00873	221.10	0.00	0.00	0.00000	0.000	1	0.00	0.00	6.87	-7.21	-6.87	6.39	0	0	0	0
43	132	0.011052	0.075503	0.01285	221.10	0.00	0.00	0.00000	0.000	1	0.00	0.00	-9.93	6.34	9.95	-7.49	0	0	0	0
44	200	0.014813	0.101195	0.01722	221.10	0.00	0.00	0.00000	0.000	1	0.00	0.00	-3.21	3.22	3.22	-4.96	0	0	0	0
46	45	0.000936	0.049195	0.00000	160.00	0.00	0.00	1.00000	0.000	1	0.00	0.00	-29.64	-4.40	29.65	4.82	0	0	0	0
55	45	0.002593	0.018527	0.03378	402.36	0.00	0.00	0.00000	0.000	1	0.00	0.00	-84.58	-4.87	84.76	2.57	0	0	0	0
102	45	0.002900	0.020715	0.03777	402.36	0.00	0.00	0.00000	0.000	1	0.00	0.00	-56.75	-1.28	56.84	-2.08	0	0	0	0
45	187	0.003474	0.024821	0.04525	402.36	0.00	0.00	0.00000	0.000	1	0.00	0.00	-171.25	-5.32	172.21	7.38	0	0	0	0
61	46	0.006971	0.048561	0.00794	221.10	0.00	0.00	0.00000	0.000	1	0.00	0.00	-21.42	-5.57	21.45	4.97	0	0	0	0
122	46	0.010129	0.065419	0.01248	221.10	0.00	0.00	0.00000	0.000	1	0.00	0.00	0.45	1.72	-0.45	-3.03	0	0	0	0
47	54	0.006678	0.045623	0.00776	221.10	0.00	0.00	0.00000	0.000	1	0.00	0.00	18.01	3.87	-17.99	-4.55	0	0	0	0
47	66	0.007339	0.047401	0.00904	221.10	0.00	0.00	0.00000	0.000	1	0.00	0.00	-20.46	-4.56	20.49	3.79	0	0	0	0
49	48	0.027149	0.532021	0.00000	28.90	0.00	0.00	1.00000	0.000	1	0.00	0.00	4.53	2.11	-4.52	-1.99	0	0	0	0
50	48	0.021719	0.404167	0.00000	28.70	0.00	0.00	1.00000	0.000	1	0.00	0.00	4.53	2.11	-4.52	-2.02	0	0	0	0
51	48	0.027149	0.612711	0.00000	24.30	0.00	0.00	1.00000	0.000	1	0.00	0.00	4.53	2.11	-4.52	-1.97	0	0	0	0
52	48	0.021719	0.379817	0.00000	24.30	0.00	0.00	1.00000	0.000	1	0.00	0.00	4.53	2.11	-4.52	-2.02	0	0	0	0
53	48	0.021210	0.576549	0.00000	35.30	0.00	0.00	1.00000	0.000	1	0.00	0.00	9.07	2.48	-9.05	-2.01	0	0	0	0
48	74	0.007959	0.054369	0.00925	221.10	0.00	0.00	0.00000	0.000	1	0.00	0.00	23.16	11.50	-23.11	-12.11	0	0	0	0
54	66	0.007051	0.045544	0.00869	221.10	0.00	0.00	0.00000	0.000	1	0.00	0.00	-39.29	-8.53	39.40	8.29	0	0	0	0
56	55	0.005152	0.124653	0.00000	160.00	0.00	0.00	1.00000	0.000	1	0.00	0.00	-4.37	-1.34	4.37	1.37	0	0	0	0
81	55	0.005467	0.039054	0.07120	402.36	0.00	0.00	0.00000	0.000	1	0.00	0.00	-78.70	5.47	79.03	-10.61	0	0	0	0
55	102	0.001246	0.008902	0.01623	402.36	0.00	0.00	0.00000	0.000	1	0.00	0.00	-44.15	-9.42	44.17	7.89	0	0	0	0
55	112	0.004166	0.029763	0.05426	402.36	0.00	0.00	0.00000	0.000	1	0.00	0.00	25.29	8.44	-25.26	-13.90	0	0	0	0
55	128	0.003415	0.024395	0.04448	402.36	0.00	0.00	0.00000	0.000	1	0.00	0.00	20.04	15.10	-20.01	-19.59	0	0	0	0
56	103	0.004282	0.029830	0.00488	221.10	0.00	0.00	0.00000	0.000	1	0.00	0.00	2.59	0.84	-2.59	-1.34	0	0	0	0
57	159	0.007520	0.051369	0.00874	221.10	0.00	0.00	0.00000	0.000	1	0.00	0.00	10.97	1.70	-10.96	-2.54	0	0	0	0
95	58	0.009836	0.063526	0.01212	221.10	0.00	0.00	0.00000	0.000	1	0.00	0.00	11.62	14.57	-11.59	-15.61	0	0	0	0
177	58	0.014049	0.095972	0.01633	221.10	0.00	0.00	0.00000	0.000	1	0.00	0.00	-0.01	-7.18	0.01	5.55	0	0	0	0
59	119	0.011209	0.072397	0.01381	221.10	0.00	0.00	0.00000	0.000	1	0.00	0.00	-13.27	6.58	13.30	-7.78	0	0	0	0
59	139	0.009665	0.062426	0.01191	221.10	0.00	0.00	0.00000	0.000	1	0.00	0.00	6.34	-8.55	-6.33	7.43	0	0	0	0
60	97	0.012274	0.079279	0.01512	221.10	0.00	0.00	0.00000	0.000	1	0.00	0.00	28.89	0.01	-28.79	-0.93	0	0	0	0
134	60	0.009007	0.062749	0.01026	221.10	0.00	0.00	0.00000	0.000	1	0.00	0.00	34.55	1.25	-34.45	-1.60	0	0	0	0
61	103	0.006539	0.045556	0.00745	221.10	0.00	0.00	0.00000	0.000	1	0.00	0.00	-6.63	-2.42	6.63	1.66	0	0	0	0
159	62	0.008634	0.058979	0.01003	221.10	0.00	0.00	0.00000	0.000	1	0.00	0.00	-14.02	-3.33	14.04	2.41	0	0	0	0
160	62	0.007628	0.053144	0.00869	221.10	0.00	0.00	0.00000	0.000	1	0.00	0.00	48.10	12.42	-47.92	-12.07	0	0	0	0
63	66	0.011949	0.083244	0.01361	221.10	0.00	0.00	0.00000	0.000	1	0.00	0.00	-63.77	-0.03	64.22	1.78	0	0	0	0
63	184	0.017963	0.116023	0.02214	221.10	0.00	0.00	0.00000	0.000	1	0.00	0.00	51.13	-3.57	-50.69	4.11	0	0	0	0
65	64	0.001280	0.101570	0.00000	195.50	0.00	0.00	1.00000	0.000	1	0.00	0.00	4.00	11.01	-4.00	-10.88	0	0	0	0
82	64	0.023000	0.158000	0.02600	221.00	0.00	0.00	0.00000	0.000	1	0.00	0.00	23.83	-7.29	-23.69	5.45	0	0	0	0
67	66	0.020951	0.144786	0.00000	30.00	0.00	0.00	1.00000	0.000	1	0.00	0.00	4.70	1.68	-4.70	-1.65	0	0	0	0
68	66	0.006890	0.264997	0.00000	73.00	0.00	0.00	1.00000	0.000	1	0.00	0.00	27.92	1.51	-27.87	0.40	0	0	0	0
69	66	0.004410	0.094990	0.00000	70.50	0.00	0.00	1.00000	0.000	1	0.00	0.00	27.92	2.63	-27.89	-1.94	0	0	0	0
70	66	0.006890	0.199449	0.00000	70.50	0.00	0.00	1.00000	0.000	1	0.00	0.00	27.92	1.46	-27.87	-0.02	0	0	0	0
71	66	0.003528	0.081544	0.00000	68.00	0.00	0.00	1.00000	0.000	1	0.00	0.00	27.92	3.26	-27.89	-2.66	0	0	0	0
72	66	0.003528	0.074599	0.00000	68.00	0.00	0.00	1.00000	0.000	1	0.00	0.00	27.92	3.51	-27.89	-2.96	0	0	0	0
73	66	0.006890	0.146423	0.00000	65.00	0.00	0.00	1.00000	0.000	1	0.00	0.00	27.92	1.54	-27.87	-0.48	0	0	0	0
66	158	0.004993	0.032251	0.00615	221.10	0.00	0.00	0.00000	0.000	1	0.00	0.00	47.87	-4.56	-47.76	4.59	0	0	0	0
74	190	0.008894	0.060760	0.01034	221.10	0.00	0.00	0.00000	0.000	1	0.00	0.00	-2.43	4.83	2.43	-5.88	0	0	0	0
76	75	0.038464	0.784328	0.00000	24.30	0.00	0.00	1.00000	0.000	1	0.00	0.00	1.20	2.04	-1.20	-2.00	0	0	0	0
77	75	0.080130	2.192105	0.00000	7.40	0.00	0.00	1.00000	0.000	1	0.00	0.00	0.72	1.16	-0.72	-1.12	0	0	0	0
78	75	0.008544	0.181406	0.00000	65.00	0.00	0.00	1.00000	0.000	1	0.00	0.00	0.00	0.00	0.00	0.00	0	0	0	0
79	75	0.010680	0.277774	0.00000	62.10	0.00	0.00	1.00000	0.000	1	0.00	0.00	0.00	0.00	0.00	0.00	0	0	0	0
108	75	0.010988	0.070969	0.01354	221.10	0.00	0.00	0.00000	0.000	1	0.00	0.00	-20.64	-4.38	20.68	3.30	0	0	0	0
75	157	0.013487	0.087112	0.01662	221.10	0.00	0.00	0.00000	0.000	1	0.00	0.00	-24.04	-1.68	24.11	0.45	0	0	0	0
80	100	0.021463	0.149525	0.02444	221.10	0.00	0.00	0.00000	0.000	1	0.00	0.00	8.16	-7.48	-8.13	5.07	0	0	0	0
80	143	0.020594	0.143470	0.02345	221.10	0.00	0.00	0.00000	0.000	1	0.00	0.00	-10.49	6.81	10.53	-8.99	0	0	0	0
82	81	0.000970	0.042371	0.00000	250.00	0.00	0.00	1.00000	0.000	1	0.00	0.00	-56.84	3.11	56.87	-1.80	0	0	0	0
81	178	0.006598	0.047137	0.08594	402.36	0.00	0.00	0.00000	0.000	1	0.00	0.00	21.83	-3.67	-21.80	-5.11	0	0	0	0
82	195	0.003845	0.026265	0.00447	221.10	0.00	0.00	0.00000	0.000	1	0.00	0.00	22.66	1.23	-22.64	-1.57	0	0	0	0
83	146	0.005382	0.036767	0.00626	221.10	0.00	0.00	0.00000	0.000	1	0.00	0.00	10.75	-13.38	-10.74	12.84	0	0	0	0
83	186	0.007920	0.055174	0.00902	221.10	0.00	0.00	0.00000	0.000	1	0.00	0.00	-54.95	8.80	55.19	-8.05	0	0	0	0
84	113	0.006652	0.045440	0.00773	221.10	0.00	0.00	0.00000	0.000	1	0.00	0.00	1.37	-7.96	-1.37	7.21	0	0	0	0
85	120	0.007786	0.050291	0.00959	221.10	0.00	0.00	0.00000	0.000	1	0.00	0.00	0.12	0.34	-0.12	-1.32	0	0	0	0
86	101	0.005120	0.033072	0.00631	221.10	0.00	0.00	0.00000	0.000	1	0.00	0.00	-4.27	-4.11	4.27	3.49	0	0	0	0
142	86	0.003387	0.023141	0.00394	221.10	0.00	0.00	0.00000	0.000	1	0.00	0.00	12.98	-2.46	-12.97	2.12	0	0	0	0
86	193	0.006606	0.042664	0.00814	221.10	0.00	0.00	0.00000	0.000	1	0.00	0.00	-17.97	-5.63	18.00	4.98	0	0	0	0
88	87	0.000832	0.034189	0.00000	350.00	0.00	0.00	1.00000	0.000	1	0.00	0.00	-100.73	-7.75	100.81	11.07	0	0	0	0
149	87	0.001621	0.011579	0.02111	402.36	0.00	0.00	0.00000	0.000	1	0.00	0.00	100.97	9.94	-100.81	-11.07	0	0	0	0
88	150	0.005570	0.035973	0.00686	221.10	0.00	0.00	0.00000	0.000	1	0.00	0.00	-38.69	-7.66	38.77	7.46	0	0	0	0
176	88	0.003859	0.024922	0.00475	221.10	0.00	0.00	0.00000	0.000	1	0.00	0.00	-43.76	-11.36	43.83	11.34	0	0	0	0
88	194	0.004258	0.029088	0.00495	221.10	0.00	0.00	0.00000	0.000	1	0.00	0.00	21.31	-17.10	-21.28	16.78	0	0	0	0
90	89	0.060100	2.279922	0.00000	8.60	0.00	0.00	1.00000	0.000	1	0.00	0.00	0.96	1.08	-0.96	-1.04	0	0	0	0
91	89	0.024614	0.503424	0.00000	32.00	0.00	0.00	1.00000	0.000	1	0.00	0.00	1.50	2.55	-1.50	-2.51	0	0	0	0
92	89	0.019539	0.362040	0.00000	35.30	0.00	0.00	1.00000	0.000	1	0.00	0.00	0.00	0.00	0.00	0.00	0	0	0	0
89	95	0.008734	0.056409	0.01076	221.10	0.00	0.00	0.00000	0.000	1	0.00	0.00	15.76	-16.53	-15.71	15.69	0	0	0	0
188	89	0.008050	0.051996	0.00992	221.10	0.00	0.00	0.00000	0.000	1	0.00	0.00	99.82	8.28	-99.05	-4.36	0	0	0	0
94	93	0.010680	0.280602	0.00000	62.10	0.00	0.00	1.00000	0.000	1	0.00	0.00	18.00	1.63	-17.97	-0.79	0	0	0	0
93	191	0.022088	0.142662	0.02722	221.10	0.00	0.00	0.00000	0.000	1	0.00	0.00	38.07	0.33	-37.77	-1.28	0	0	0	0
122	96	0.010620	0.073986	0.01209	221.10	0.00	0.00	0.00000	0.000	1	0.00	0.00	42.43	0.36	-42.25	-0.37	0	0	0	0
96	143	0.015858	0.102423	0.01954	221.10	0.00	0.00	0.00000	0.000	1	0.00	0.00	53.32	3.87	-52.88	-3.08	0	0	0	0
96	188	0.010903	0.070421	0.01343	221.10	0.00	0.00	0.00000	0.000	1	0.00	0.00	-15.11	-4.66	15.13	3.41	0	0	0	0
97	200	0.013180	0.085125	0.01624	221.10	0.00	0.00	0.00000	0.000	1	0.00	0.00	18.05	-2.13	-18.01	0.74	0	0	0	0
99	98	0.000643	0.030516	0.00000	250.00	0.00	0.00	1.00000	0.000	1	0.00	0.00	-85.76	-19.85	85.81	22.19	0	0	0	0
98	123	0.004700	0.033574	0.06121	402.36	0.00	0.00	0.00000	0.000	1	0.00	0.00	-85.81	-22.19	86.16	18.40	0	0	0	0
99	142	0.007605	0.052982	0.00866	221.10	0.00	0.00	0.00000	0.000	1	0.00	0.00	67.93	14.77	-67.57	-13.09	0	0	0	0
100	174	0.010698	0.074531	0.01218	221.10	0.00	0.00	0.00000	0.000	1	0.00	0.00	-26.96	10.04	27.04	-10.73	0	0	0	0
100	179	0.007093	0.049413	0.00808	221.10	0.00	0.00	0.00000	0.000	1	0.00	0.00	-35.70	17.81	35.81	-17.91	0	0	0	0
100	184	0.012745	0.088790	0.01451	221.10	0.00	0.00	0.00000	0.000	1	0.00	0.00	-33.62	8.43	33.77	-8.93	0	0	0	0
110	101	0.001960	0.012657	0.00241	221.10	0.00	0.00	0.00000	0.000	1	0.00	0.00	7.81	0.04	-7.81	-0.27	0	0	0	0
101	117	0.005245	0.035833	0.00610	221.10	0.00	0.00	0.00000	0.000	1	0.00	0.00	-21.05	-13.43	21.08	13.04	0	0	0	0
101	141	0.003144	0.020305	0.00387	221.10	0.00	0.00	0.00000	0.000	1	0.00	0.00	-6.44	0.16	6.44	-0.53	0	0	0	0
103	102	0.001709	0.054578	0.00000	250.00	0.00	0.00	1.00000	0.000	1	0.00	0.00	-18.38	-6.06	18.38	6.25	0	0	0	0
104	102	0.002100	0.087749	0.00000	130.00	0.00	0.00	1.00000	0.000	1	0.00	0.00	17.90	15.49	-17.89	-15.04	0	0	0	0
105	102	0.000970	0.059419	0.00000	260.00	0.00	0.00	1.00000	0.000	1	0.00	0.00	33.60	23.08	-33.59	-22.17	0	0	0	0
102	128	0.002700	0.019292	0.03517	402.36	0.00	0.00	0.00000	0.000	1	0.00	0.00	45.67	24.35	-45.60	-27.52	0	0	0	0
103	106	0.007749	0.053987	0.00883	221.10	0.00	0.00	0.00000	0.000	1	0.00	0.00	14.33	5.74	-14.31	-6.53	0	0	0	0
130	106	0.006991	0.047761	0.00813	221.10	0.00	0.00	0.00000	0.000	1	0.00	0.00	-11.49	-6.49	11.50	5.73	0	0	0	0
107	113	0.006748	0.046101	0.00784	221.10	0.00	0.00	0.00000	0.000	1	0.00	0.00	-40.71	-9.30	40.83	9.33	0	0	0	0
107	129	0.005168	0.035307	0.00601	221.10	0.00	0.00	0.00000	0.000	1	0.00	0.00	-42.10	-9.93	42.20	10.00	0	0	0	0
192	107	0.003939	0.025441	0.00485	221.10	0.00	0.00	0.00000	0.000	1	0.00	0.00	-11.09	0.77	11.09	-1.21	0	0	0	0
108	198	0.024792	0.160126	0.03055	221.10	0.00	0.00	0.00000	0.000	1	0.00	0.00	6.84	0.45	-6.82	-3.47	0	0	0	0
186	109	0.008774	0.059942	0.01020	221.10	0.00	0.00	0.00000	0.000	1	0.00	0.00	22.38	2.14	-22.34	-2.88	0	0	0	0
110	193	0.003444	0.022243	0.00424	221.10	0.00	0.00	0.00000	0.000	1	0.00	0.00	-23.72	-4.58	23.74	4.29	0	0	0	0
163	111	0.005281	0.034111	0.00651	221.10	0.00	0.00	0.00000	0.000	1	0.00	0.00	11.39	4.08	-11.38	-4.70	0	0	0	0
111	175	0.007950	0.055386	0.00905	221.10	0.00	0.00	0.00000	0.000	1	0.00	0.00	-2.57	0.73	2.57	-1.65	0	0	0	0
113	112	0.002077	0.058615	0.00000	350.00	0.00	0.00	1.00000	0.000	1	0.00	0.00	-101.42	-27.98	101.65	34.46	0	0	0	0
114	112	0.060000	0.434013	0.00000	20.00	0.00	0.00	1.00000	0.000	1	0.00	0.00	0.40	0.36	-0.40	-0.36	0	0	0	0
115	112	0.001280	0.062771	0.00000	200.00	0.00	0.00	1.00000	0.000	1	0.00	0.00	47.70	30.99	-47.66	-29.11	0	0	0	0
128	112	0.001295	0.009255	0.01687	402.36	0.00	0.00	0.00000	0.000	1	0.00	0.00	28.34	-10.59	-28.33	8.91	0	0	0	0
113	192	0.005418	0.034995	0.00668	221.10	0.00	0.00	0.00000	0.000	1	0.00	0.00	61.95	11.45	-61.74	-10.72	0	0	0	0
117	116	0.000517	0.034943	0.00000	300.00	0.00	0.00	1.00000	0.000	1	0.00	0.00	-130.68	-26.21	130.77	32.42	0	0	0	0
133	116	0.003890	0.027793	0.05067	402.36	0.00	0.00	0.00000	0.000	1	0.00	0.00	131.46	32.07	-130.77	-32.42	0	0	0	0
117	132	0.011912	0.082984	0.01357	221.10	0.00	0.00	0.00000	0.000	1	0.00	0.00	49.74	4.50	-49.44	-3.77	0	0	0	0
117	162	0.016170	0.104442	0.01993	221.10	0.00	0.00	0.00000	0.000	1	0.00	0.00	9.94	-5.56	-9.92	3.69	0	0	0	0
131	118	0.007180	0.046377	0.00885	221.10	0.00	0.00	0.00000	0.000	1	0.00	0.00	-42.07	-13.30	42.21	13.32	0	0	0	0
118	134	0.011598	0.080800	0.01321	221.10	0.00	0.00	0.00000	0.000	1	0.00	0.00	-49.02	-12.63	49.32	13.31	0	0	0	0
118	198	0.009487	0.064809	0.01103	221.10	0.00	0.00	0.00000	0.000	1	0.00	0.00	1.05	-2.34	-1.05	1.23	0	0	0	0
122	121	0.000786	0.063023	0.00000	200.00	0.00	0.00	1.00000	0.000	1	0.00	0.00	-63.95	-8.08	63.98	10.56	0	0	0	0
121	178	0.008903	0.063604	0.11596	402.36	0.00	0.00	0.00000	0.000	1	0.00	0.00	130.91	-1.58	-129.48	-0.46	0	0	0	0
187	121	0.001063	0.007593	0.01384	475.00	0.00	0.00	0.00000	0.000	1	0.00	0.00	220.59	-2.05	-220.11	4.01	0	0	0	0
124	123	0.000329	0.017481	0.00000	420.00	0.00	0.00	1.00000	0.000	1	0.00	0.00	-286.41	-65.07	286.69	79.88	0	0	0	0
125	123	0.004480	0.104562	0.00000	170.00	0.00	0.00	1.00000	0.000	1	0.00	0.00	150.00	21.95	-149.05	0.27	0	0	0	0
126	123	0.001480	0.066043	0.00000	170.00	0.00	0.00	1.00000	0.000	1	0.00	0.00	150.00	31.11	-149.68	-16.79	0	0	0	0
127	123	0.001000	0.031691	0.00000	170.00	0.00	0.00	1.00000	0.000	1	0.00	0.00	150.00	55.93	-149.76	-48.42	0	0	0	0
123	133	0.001459	0.010423	0.01900	402.36	0.00	0.00	0.00000	0.000	1	0.00	0.00	31.56	-24.84	-31.53	23.00	0	0	0	0
156	123	0.001117	0.007981	0.01455	402.36	0.00	0.00	0.00000	0.000	1	0.00	0.00	-44.06	7.13	44.08	-8.50	0	0	0	0
124	193	0.006577	0.045820	0.00749	221.10	0.00	0.00	0.00000	0.000	1	0.00	0.00	79.30	18.61	-78.88	-16.37	0	0	0	0
129	128	0.000753	0.044453	0.00000	250.00	0.00	0.00	1.00000	0.000	1	0.00	0.00	-147.60	-40.04	147.78	50.44	0	0	0	0
128	133	0.009554	0.068257	0.12444	402.36	0.00	0.00	0.00000	0.000	1	0.00	0.00	-110.50	7.26	111.63	-12.15	0	0	0	0
130	144	0.022678	0.157988	0.02583	221.10	0.00	0.00	0.00000	0.000	1	0.00	0.00	5.49	4.78	-5.47	-7.31	0	0	0	0
134	133	0.000200	0.013328	0.00000	400.00	0.00	0.00	1.00000	0.000	1	0.00	0.00	-205.26	-26.38	205.34	31.87	0	0	0	0
135	133	0.000430	0.033512	0.00000	580.00	0.00	0.00	1.00000	0.000	1	0.00	0.00	196.42	51.62	-196.25	-38.84	0	0	0	0
136	133	0.000430	0.027478	0.00000	580.00	0.00	0.00	1.00000	0.000	1	0.00	0.00	222.55	61.53	-222.34	-47.98	0	0	0	0
156	133	0.001958	0.013985	0.02550	402.36	0.00	0.00	0.00000	0.000	1	0.00	0.00	-1.68	-14.68	1.69	12.04	0	0	0	0
134	140	0.010445	0.071357	0.01214	221.10	0.00	0.00	0.00000	0.000	1	0.00	0.00	39.82	12.72	-39.64	-12.75	0	0	0	0
...
];

%% bus names
mpc.bus_name = {
'CREVE COEUR 0';
'CREVE COEUR 1';
'ILLIOPOLIS 0';
'ILLIOPOLIS 1';
'PAXTON 2 0';
'PAXTON 2 1';
'PEORIA 9 0';
'PEORIA 9 1';
'PEORIA 8 0';
'PEORIA 8 1';
'LOVINGTON 0';
'LOVINGTON 1';
'LOVINGTON 2';
'DECATUR 3 0';
'DECATUR 3 1';
'DECATUR 3 2';
'MASON CITY 0';
'MASON CITY 1';
'MASON CITY 2';
'MASON CITY 3';
'MASON CITY 4';
'BETHANY 0';
'BETHANY 1';
'BETHANY 2';
'RANKIN 0';
'RANKIN 1';
'WINDSOR 0';
'WINDSOR 1';
'PEKIN 2 0';
'PEKIN 2 1';
'HEYWORTH 0';
'HEYWORTH 1';
'HEYWORTH 2';
'DECATUR 2 0';
'DECATUR 2 1';
'LINCOLN 0';
'LINCOLN 1';
'LINCOLN 2';
'SHERMAN 0';
'SHERMAN 1';
'URBANA 2 0';
'SPRINGFIELD 8 0';
'CARLOCK 0';
'PLEASANT PLAINS 0';
'LE ROY 0';
'LE ROY 1';
'DECATUR 1 0';
'RANTOUL 2 0';
'RANTOUL 2 1';
'RANTOUL 2 2';
'RANTOUL 2 3';
'RANTOUL 2 4';
'RANTOUL 2 5';
'MACON 0';
'ELLSWORTH 2 0';
'ELLSWORTH 2 1';
'MOUNT PULASKI 0';
'WAPELLA 0';
'ROANOKE 0';
'GREEN VALLEY 0';
'BLOOMINGTON 3 0';
'SPRINGFIELD 7 0';
'BEMENT 0';
'PAXTON 1 0';
'PAXTON 1 1';
'MOUNT ZION 0';
'MOUNT ZION 1';
'MOUNT ZION 2';
'MOUNT ZION 3';
'MOUNT ZION 4';
'MOUNT ZION 5';
'MOUNT ZION 6';
'MOUNT ZION 7';
'RANTOUL 1 0';
'BRIMFIELD 0';
'BRIMFIELD 1';
'BRIMFIELD 2';
'BRIMFIELD 3';
'BRIMFIELD 4';
'WELDON 0';
'GIBSON CITY 2 0';
'GIBSON CITY 2 1';
'MINIER 0';
'HUDSON 0';
'ATHENS 0';
'PEORIA HEIGHTS 0';
'SPRINGFIELD 6 0';
'SPRINGFIELD 6 1';
'CLINTON 3 0';
'CLINTON 3 1';
'CLINTON 3 2';
'CLINTON 3 3';
'TUSCOLA 2 0';
'TUSCOLA 2 1';
'KENNEY 0';
'MANSFIELD 0';
'MANITO 0';
'DUNLAP 0';
'DUNLAP 1';
'CHAMPAIGN 3 0';
'PEORIA 7 0';
'ELLSWORTH 1 0';
'ELLSWORTH 1 1';
'ELLSWORTH 1 2';
'ELLSWORTH 1 3';
'TOWANDA 0';
'BLOOMINGTON 2 0';
'PRINCEVILLE 0';
'DELAVAN 0';
'PEORIA 6 0';
'SAVOY 0';
'NORMAL 2 0';
'NORMAL 2 1';
'NORMAL 2 2';
'NORMAL 2 3';
'EAST PEORIA 0';
'EAST PEORIA 1';
'HANNA CITY 0';
'METAMORA 0';
'GREENVIEW 0';
'CLINTON 2 0';
'CLINTON 2 1';
'BARTONVILLE 0';
'BARTONVILLE 1';
'BARTONVILLE 2';
'BARTONVILLE 3';
'BARTONVILLE 4';
'NORMAL 1 0';
'NORMAL 1 1';
'LEXINGTON 0';
'PEORIA 5 0';
'MORTON 0';
'PEKIN 1 0';
'PEKIN 1 1';
'PEKIN 1 2';
'PEKIN 1 3';
'NIANTIC 0';
'COLFAX 0';
'EL PASO 0';
'TREMONT 0';
'PEORIA 4 0';
'PEORIA 3 0';
'CHAMPAIGN 2 0';
'EUREKA 0';
'CHATHAM 0';
'HOPEDALE 2 0';
'HOPEDALE 2 1';
'WASHINGTON 0';
'SPRINGFIELD 5 0';
'SPRINGFIELD 5 1';
'SPRINGFIELD 5 2';
'SPRINGFIELD 5 3';
'SPRINGFIELD 5 4';
'SPRINGFIELD 5 5';
'SPRINGFIELD 5 6';
'PEORIA 2 0';
'PEORIA 2 1';
'MT ZION 0';
'BUFFALO 0';
'SPRINGFIELD 4 0';
'SPRINGFIELD 4 1';
'CONGERVILLE 0';
'CHAMPAIGN 1 0';
'CHAMPAIGN 1 1';
'CHAMPAIGN 1 2';
'CHAMPAIGN 1 3';
'CHAMPAIGN 1 4';
'CHAMPAIGN 1 5';
'CHAMPAIGN 1 6';
'CHAMPAIGN 1 7';
'FISHER 0';
'HOMER 0';
'TUSCOLA 1 0';
'WHITE HEATH 0';
'TOLONO 0';
'SPRINGFIELD 3 0';
'MACKINAW 0';
'URBANA 1 0';
'URBANA 1 1';
'SAINT JOSEPH 0';
'SPRINGFIELD 2 0';
'SPRINGFIELD 2 1';
'SPRINGFIELD 2 2';
'MONTICELLO 0';
'AUBURN 0';
'HOPEDALE 1 0';
'CLINTON 1 0';
'CLINTON 1 1';
'CLINTON 1 2';
'MAHOMET 0';
'VILLA GROVE 0';
'BLOOMINGTON 1 0';
'PEORIA 1 0';
'SPRINGFIELD 1 0';
'GIBSON CITY 1 0';
'GIBSON CITY 1 1';
'GIBSON CITY 1 2';
'MAPLETON 0';
'GIFFORD 0';
'PETERSBURG 0';
};

%% Generator Unit Types
mpc.gentype = {
'ST';
'ST';
'ST';
'ST';
'ST';
'W2';
'ST';
'ST';
'ST';
'ST';
'ST';
'ST';
'ST';
'GT';
'GT';
'GT';
'GT';
'GT';
'GT';
'GT';
'ST';
'W2';
'W2';
'W2';
'W2';
'ST';
'ST';
'ST';
'ST';
'ST';
'W2';
'ST';
'ST';
'ST';
'ST';
'ST';
'GT';
'GT';
'GT';
'GT';
'GT';
'GT';
'GT';
'GT';
'ST';
'ST';
'NB';
'GT';
'GT';
};

%% Generator Fuel Types
mpc.genfuel = {
'coal';
'coal';
'coal';
'coal';
'coal';
'wind';
'coal';
'coal';
'coal';
'coal';
'coal';
'coal';
'coal';
'ng';
'ng';
'ng';
'ng';
'ng';
'ng';
'ng';
'coal';
'wind';
'wind';
'wind';
'wind';
'coal';
'coal';
'coal';
'coal';
'coal';
'wind';
'coal';
'coal';
'coal';
'coal';
'coal';
'ng';
'ng';
'ng';
'ng';
'ng';
'ng';
'ng';
'ng';
'coal';
'coal';
'nuclear';
'ng';
'ng';
};

%% gmd_bus data
%column_names% parent_index status g_gnd sub name
mpc.gmd_bus = {
-1	1	0.9387300385		-1	'dc sub CREVE COEUR'
-1	1	2.0191028125		-1	'dc sub ILLIOPOLIS'
-1	1	12.5828391214		-1	'dc sub PAXTON 2'
-1	1	5.5546587868		-1	'dc sub PEORIA 9'
-1	1	0.2131956401		-1	'dc sub PEORIA 8'
-1	1	3.0298918832		-1	'dc sub LOVINGTON'
-1	1	6.9719808639		-1	'dc sub DECATUR 3'
-1	1	1.0168025710		-1	'dc sub MASON CITY'
-1	1	4.2969867552		-1	'dc sub BETHANY'
-1	1	0.7667223486		-1	'dc sub RANKIN'
-1	1	0.2598989439		-1	'dc sub WINDSOR'
-1	1	8.8276127019		-1	'dc sub PEKIN 2'
-1	1	1.4915326883		-1	'dc sub HEYWORTH'
-1	1	3.7124523038		-1	'dc sub DECATUR 2'
-1	1	1.1977594950		-1	'dc sub LINCOLN'
-1	1	1.9418395368		-1	'dc sub SHERMAN'
-1	1	7.5089269878		-1	'dc sub URBANA 2'
-1	1	1.2777096737		-1	'dc sub SPRINGFIELD 8'
-1	1	4.4609750335		-1	'dc sub CARLOCK'
-1	1	38.4976225793		-1	'dc sub PLEASANT PLAINS'
-1	1	1.7946604115		-1	'dc sub LE ROY'
-1	1	0.4798829884		-1	'dc sub DECATUR 1'
-1	1	3.2004673194		-1	'dc sub RANTOUL 2'
-1	1	3.0056709196		-1	'dc sub MACON'
-1	1	2.9337544171		-1	'dc sub ELLSWORTH 2'
-1	1	0.0858867605		-1	'dc sub MOUNT PULASKI'
-1	1	6.1992056462		-1	'dc sub WAPELLA'
-1	1	5.3010947609		-1	'dc sub ROANOKE'
-1	1	79.3132110429		-1	'dc sub GREEN VALLEY'
-1	1	10.6070364534		-1	'dc sub BLOOMINGTON 3'
-1	1	5.4238282443		-1	'dc sub SPRINGFIELD 7'
-1	1	3.8433820286		-1	'dc sub BEMENT'
-1	1	11.6955630893		-1	'dc sub PAXTON 1'
-1	1	1.8522477870		-1	'dc sub MOUNT ZION'
-1	1	10.5854942738		-1	'dc sub RANTOUL 1'
-1	1	6.9334659752		-1	'dc sub BRIMFIELD'
-1	1	2.2858224900		-1	'dc sub WELDON'
-1	1	13.1329093768		-1	'dc sub GIBSON CITY 2'
-1	1	13.4910527338		-1	'dc sub MINIER'
-1	1	10.1585495623		-1	'dc sub HUDSON'
-1	1	51.2371202689		-1	'dc sub ATHENS'
-1	1	2.2432157808		-1	'dc sub PEORIA HEIGHTS'
-1	1	0.2321055138		-1	'dc sub SPRINGFIELD 6'
-1	1	2.3705984535		-1	'dc sub CLINTON 3'
-1	1	5.7862146445		-1	'dc sub TUSCOLA 2'
-1	1	3.2230988406		-1	'dc sub KENNEY'
-1	1	20.5059052906		-1	'dc sub MANSFIELD'
-1	1	10.1541645884		-1	'dc sub MANITO'
-1	1	1.4993645468		-1	'dc sub DUNLAP'
-1	1	0.2732473018		-1	'dc sub CHAMPAIGN 3'
-1	1	1.1730504286		-1	'dc sub PEORIA 7'
-1	1	7.6580954454		-1	'dc sub ELLSWORTH 1'
-1	1	1.0586962143		-1	'dc sub TOWANDA'
-1	1	20.4079883397		-1	'dc sub BLOOMINGTON 2'
-1	1	1.6057803984		-1	'dc sub PRINCEVILLE'
-1	1	0.3946356030		-1	'dc sub DELAVAN'
-1	1	7.4737510652		-1	'dc sub PEORIA 6'
-1	1	3.1064115247		-1	'dc sub SAVOY'
-1	1	0.4040945674		-1	'dc sub NORMAL 2'
-1	1	8.7888267294		-1	'dc sub EAST PEORIA'
-1	1	2.0968006471		-1	'dc sub HANNA CITY'
-1	1	7.4807313193		-1	'dc sub METAMORA'
-1	1	5.2831769645		-1	'dc sub GREENVIEW'
-1	1	1.0756930104		-1	'dc sub CLINTON 2'
-1	1	10.3307887568		-1	'dc sub BARTONVILLE'
-1	1	4.5150713986		-1	'dc sub NORMAL 1'
-1	1	4.6543914230		-1	'dc sub LEXINGTON'
-1	1	2.6467541121		-1	'dc sub PEORIA 5'
-1	1	14.1114659047		-1	'dc sub MORTON'
-1	1	3.8234560464		-1	'dc sub PEKIN 1'
-1	1	2.7574809562		-1	'dc sub NIANTIC'
-1	1	1.0594403568		-1	'dc sub COLFAX'
-1	1	1.5827466685		-1	'dc sub EL PASO'
-1	1	6.5399199658		-1	'dc sub TREMONT'
-1	1	7.2217782835		-1	'dc sub PEORIA 4'
-1	1	4.6603028367		-1	'dc sub PEORIA 3'
-1	1	8.2276105941		-1	'dc sub CHAMPAIGN 2'
-1	1	1.5895228067		-1	'dc sub EUREKA'
-1	1	2.0863761391		-1	'dc sub CHATHAM'
-1	1	0.2104863376		-1	'dc sub HOPEDALE 2'
-1	1	3.2392600390		-1	'dc sub WASHINGTON'
-1	1	0.4997722363		-1	'dc sub SPRINGFIELD 5'
-1	1	2.7613993811		-1	'dc sub PEORIA 2'
-1	1	5.7268091004		-1	'dc sub MT ZION'
-1	1	3.6434277791		-1	'dc sub BUFFALO'
-1	1	1.5240058041		-1	'dc sub SPRINGFIELD 4'
-1	1	3.5524598315		-1	'dc sub CONGERVILLE'
-1	1	3.0306231743		-1	'dc sub CHAMPAIGN 1'
-1	1	3.7685137660		-1	'dc sub FISHER'
-1	1	5.8991182352		-1	'dc sub HOMER'
-1	1	5.0657160141		-1	'dc sub TUSCOLA 1'
-1	1	0.2085376090		-1	'dc sub WHITE HEATH'
-1	1	7.0664376576		-1	'dc sub TOLONO'
-1	1	0.3146432248		-1	'dc sub SPRINGFIELD 3'
-1	1	13.2486427097		-1	'dc sub MACKINAW'
-1	1	2.3275489320		-1	'dc sub URBANA 1'
-1	1	9.0151197983		-1	'dc sub SAINT JOSEPH'
-1	1	10.5197094120		-1	'dc sub SPRINGFIELD 2'
-1	1	5.8237282099		-1	'dc sub MONTICELLO'
-1	1	1.0480112504		-1	'dc sub AUBURN'
-1	1	8.7954483906		-1	'dc sub HOPEDALE 1'
-1	1	2.2318525170		-1	'dc sub CLINTON 1'
-1	1	12.0397214490		-1	'dc sub MAHOMET'
-1	1	4.0094976981		-1	'dc sub VILLA GROVE'
-1	1	7.8770009453		-1	'dc sub BLOOMINGTON 1'
-1	1	2.1810062447		-1	'dc sub PEORIA 1'
-1	1	4.3533777793		-1	'dc sub SPRINGFIELD 1'
-1	1	11.5402986652		-1	'dc sub GIBSON CITY 1'
-1	1	10.3527663731		-1	'dc sub MAPLETON'
-1	1	0.2510628091		-1	'dc sub GIFFORD'
-1	1	20.0962691678		-1	'dc sub PETERSBURG'
1	1	0.0000000000		1	'dc bus CREVE COEUR 0'
2	1	0.0000000000		1	'dc bus CREVE COEUR 1'
3	1	0.0000000000		2	'dc bus ILLIOPOLIS 0'
4	1	0.0000000000		2	'dc bus ILLIOPOLIS 1'
5	1	0.0000000000		3	'dc bus PAXTON 2 0'
6	1	0.0000000000		3	'dc bus PAXTON 2 1'
7	1	0.0000000000		4	'dc bus PEORIA 9 0'
8	1	0.0000000000		4	'dc bus PEORIA 9 1'
9	1	0.0000000000		5	'dc bus PEORIA 8 0'
10	1	0.0000000000		5	'dc bus PEORIA 8 1'
11	1	0.0000000000		6	'dc bus LOVINGTON 0'
12	1	0.0000000000		6	'dc bus LOVINGTON 1'
13	1	0.0000000000		6	'dc bus LOVINGTON 2'
14	1	0.0000000000		7	'dc bus DECATUR 3 0'
15	1	0.0000000000		7	'dc bus DECATUR 3 1'
16	1	0.0000000000		7	'dc bus DECATUR 3 2'
17	1	0.0000000000		8	'dc bus MASON CITY 0'
18	1	0.0000000000		8	'dc bus MASON CITY 1'
19	1	0.0000000000		8	'dc bus MASON CITY 2'
20	1	0.0000000000		8	'dc bus MASON CITY 3'
21	1	0.0000000000		8	'dc bus MASON CITY 4'
22	1	0.0000000000		9	'dc bus BETHANY 0'
23	1	0.0000000000		9	'dc bus BETHANY 1'
24	1	0.0000000000		9	'dc bus BETHANY 2'
25	1	0.0000000000		10	'dc bus RANKIN 0'
26	1	0.0000000000		10	'dc bus RANKIN 1'
27	1	0.0000000000		11	'dc bus WINDSOR 0'
28	1	0.0000000000		11	'dc bus WINDSOR 1'
29	1	0.0000000000		12	'dc bus PEKIN 2 0'
30	1	0.0000000000		12	'dc bus PEKIN 2 1'
31	1	0.0000000000		13	'dc bus HEYWORTH 0'
32	1	0.0000000000		13	'dc bus HEYWORTH 1'
33	1	0.0000000000		13	'dc bus HEYWORTH 2'
34	1	0.0000000000		14	'dc bus DECATUR 2 0'
35	1	0.0000000000		14	'dc bus DECATUR 2 1'
36	1	0.0000000000		15	'dc bus LINCOLN 0'
37	1	0.0000000000		15	'dc bus LINCOLN 1'
38	1	0.0000000000		15	'dc bus LINCOLN 2'
39	1	0.0000000000		16	'dc bus SHERMAN 0'
40	1	0.0000000000		16	'dc bus SHERMAN 1'
41	1	0.0000000000		17	'dc bus URBANA 2 0'
42	1	0.0000000000		18	'dc bus SPRINGFIELD 8 0'
43	1	0.0000000000		19	'dc bus CARLOCK 0'
44	1	0.0000000000		20	'dc bus PLEASANT PLAINS 0'
45	1	0.0000000000		21	'dc bus LE ROY 0'
46	1	0.0000000000		21	'dc bus LE ROY 1'
47	1	0.0000000000		22	'dc bus DECATUR 1 0'
48	1	0.0000000000		23	'dc bus RANTOUL 2 0'
49	1	0.0000000000		23	'dc bus RANTOUL 2 1'
50	1	0.0000000000		23	'dc bus RANTOUL 2 2'
51	1	0.0000000000		23	'dc bus RANTOUL 2 3'
52	1	0.0000000000		23	'dc bus RANTOUL 2 4'
53	1	0.0000000000		23	'dc bus RANTOUL 2 5'
54	1	0.0000000000		24	'dc bus MACON 0'
55	1	0.0000000000		25	'dc bus ELLSWORTH 2 0'
56	1	0.0000000000		25	'dc bus ELLSWORTH 2 1'
57	1	0.0000000000		26	'dc bus MOUNT PULASKI 0'
58	1	0.0000000000		27	'dc bus WAPELLA 0'
59	1	0.0000000000		28	'dc bus ROANOKE 0'
60	1	0.0000000000		29	'dc bus GREEN VALLEY 0'
61	1	0.0000000000		30	'dc bus BLOOMINGTON 3 0'
62	1	0.0000000000		31	'dc bus SPRINGFIELD 7 0'
63	1	0.0000000000		32	'dc bus BEMENT 0'
64	1	0.0000000000		33	'dc bus PAXTON 1 0'
65	1	0.0000000000		33	'dc bus PAXTON 1 1'
66	1	0.0000000000		34	'dc bus MOUNT ZION 0'
67	1	0.0000000000		34	'dc bus MOUNT ZION 1'
68	1	0.0000000000		34	'dc bus MOUNT ZION 2'
69	1	0.0000000000		34	'dc bus MOUNT ZION 3'
70	1	0.0000000000		34	'dc bus MOUNT ZION 4'
71	1	0.0000000000		34	'dc bus MOUNT ZION 5'
72	1	0.0000000000		34	'dc bus MOUNT ZION 6'
73	1	0.0000000000		34	'dc bus MOUNT ZION 7'
74	1	0.0000000000		35	'dc bus RANTOUL 1 0'
75	1	0.0000000000		36	'dc bus BRIMFIELD 0'
76	1	0.0000000000		36	'dc bus BRIMFIELD 1'
77	1	0.0000000000		36	'dc bus BRIMFIELD 2'
78	1	0.0000000000		36	'dc bus BRIMFIELD 3'
79	1	0.0000000000		36	'dc bus BRIMFIELD 4'
80	1	0.0000000000		37	'dc bus WELDON 0'
81	1	0.0000000000		38	'dc bus GIBSON CITY 2 0'
82	1	0.0000000000		38	'dc bus GIBSON CITY 2 1'
83	1	0.0000000000		39	'dc bus MINIER 0'
84	1	0.0000000000		40	'dc bus HUDSON 0'
85	1	0.0000000000		41	'dc bus ATHENS 0'
86	1	0.0000000000		42	'dc bus PEORIA HEIGHTS 0'
87	1	0.0000000000		43	'dc bus SPRINGFIELD 6 0'
88	1	0.0000000000		43	'dc bus SPRINGFIELD 6 1'
89	1	0.0000000000		44	'dc bus CLINTON 3 0'
...
};

%% gmd_branch data
%column_names% f_bus t_bus parent_type parent_index br_status br_r br_v len_km name
mpc.gmd_branch = {
113	112	'branch'	1	1	0.0296706067		0.0000000000		0.0000000000		'dc 1'
	% line 2-1
112	230	'branch'	2	1	0.8173857067		20.7789459200		32.8052586900		'dc 2'
	% line 1-119
235	112	'branch'	3	1	0.2475396833		5.3766460400		7.4405435100		'dc 3'
	% line 124-1
304	112	'branch'	4	1	0.1877035267		2.8571918000		4.7725957800		'dc 4'
	% line 193-1
115	114	'branch'	5	1	0.0252559333		0.0000000000		0.0000000000		'dc 5'
	% line 4-3
168	114	'branch'	6	1	0.3749078767		2.7568602600		13.0874711700		'dc 6'
	% line 57-3
114	248	'branch'	7	1	0.2596000800		7.9033622700		7.9914343600		'dc 7'
	% line 3-137
117	116	'branch'	8	1	0.0305743700		0.0000000000		0.0000000000		'dc 8'
	% line 6-5
159	116	'branch'	9	1	0.2753431600		4.6128764200		8.6704807500		'dc 9'
	% line 48-5
116	175	'branch'	10	1	0.3472397133		7.0977931000		11.8730412400		'dc 10'
	% line 5-64
119	118	'branch'	11	1	0.0279443400		0.0000000000		0.0000000000		'dc 11'
	% line 8-7
118	197	'branch'	12	1	0.1655779467		0.4292340600		3.7828010500		'dc 12'
	% line 7-86
118	212	'branch'	13	1	0.1585619567		-3.0403914500		3.4809766200		'dc 13'
	% line 7-101
118	259	'branch'	14	1	0.3820774733		13.4222116500		13.4572255200		'dc 14'
	% line 7-148
121	120	'branch'	15	1	0.0257915467		0.0000000000		0.0000000000		'dc 15'
	% line 10-9
120	235	'branch'	16	1	0.3557094000		-0.8014624700		12.2337073000		'dc 16'
	% line 9-124
242	120	'branch'	17	1	0.1824529833		2.8013808700		4.5393278600		'dc 17'
	% line 131-9
120	252	'branch'	18	1	0.1959764667		3.8069052700		5.1445981400		'dc 18'
	% line 9-141
...